@<TRIPOS>MOLECULE
*****
 123 128 0 0 0
SMALL
GASTEIGER

@<TRIPOS>ATOM
     1 C         3.582733   2.293106   2.959605 C.3        1 UNL1     0.0009
     2 C         5.307146   2.956035   2.804809 C.2        1 UNL1     -0.0787
     3 C         6.710372   2.900817   3.156883 C.2        1 UNL1     -0.0649
     4 C         7.979919   3.822598   2.520544 C.2        1 UNL1     -0.0542
     5 C         9.383582   3.90094   2.345417 C.2        1 UNL1     0.0115
     6 C         10.739217   3.266783   2.761858 C.3        1 UNL1     -0.0348
     7 C         9.973206   4.89538   1.231674 C.2        1 UNL1     0.2441
     8 O         10.463854   5.982632   1.503105 O.2        1 UNL1     -0.2702
     9 N         10.126556   4.326017   -0.044438 N.am        1 UNL1     -0.2772
     10 C         8.966873   4.460374   -0.772728 C.2        1 UNL1     0.1049
     11 C         8.032659   3.553285   -0.552147 C.2        1 UNL1     0.0801
     12 C         7.236367   6.132298   -1.456359 C.ar        1 UNL1     0.0753
     13 C         6.25931   5.188536   -1.005492 C.ar        1 UNL1     0.0305
     14 C         6.623215   3.815985   -0.660925 C.2        1 UNL1     0.0924
     15 N         8.099494   2.389447   0.116838 N.pl3        1 UNL1     -0.3170
     16 C         6.855392   1.695098   -0.084018 C.3        1 UNL1     0.1275
     17 N         5.845692   2.790765   -0.324311 N.2        1 UNL1     -0.2557
     18 C         6.97155   0.930412   -1.399109 C.3        1 UNL1     0.0016
     19 C         8.19137   0.025551   -1.329423 C.3        1 UNL1     0.0026
     20 N         8.033529   -0.886609   -0.20511 N.3        1 UNL1     -0.3018
     21 C         7.852656   -0.242435   1.097462 C.3        1 UNL1     0.0026
     22 C         6.619467   0.658004   1.006085 C.3        1 UNL1     0.0016
     23 C         8.985938   -1.97889   -0.227082 C.3        1 UNL1     0.0012
     24 C         10.292937   -1.567958   0.469082 C.3        1 UNL1     -0.0339
     25 C         10.374645   -2.139132   1.894263 C.3        1 UNL1     -0.0615
     26 C         11.485588   -1.989767   -0.371417 C.3        1 UNL1     -0.0615
     27 C         6.865293   7.400271   -1.897572 C.ar        1 UNL1     0.1347
     28 C         5.549891   7.822625   -1.970945 C.ar        1 UNL1     0.0342
     29 C         4.609223   6.894557   -1.47597 C.ar        1 UNL1     0.1435
     30 C         4.969459   5.634328   -0.997147 C.ar        1 UNL1     0.0774
     31 O         3.280366   7.113919   -1.580969 O.3        1 UNL1     -0.4436
     32 C         2.68543   5.81638   -1.428274 C.3        1 UNL1     0.3143
     33 C         3.710788   4.997079   -0.670912 C.2        1 UNL1     0.2504
     34 C         5.059649   9.06362   -2.663545 C.3        1 UNL1     -0.0327
     35 O         1.551458   5.96659   -0.565258 O.2        1 UNL1     -0.4528
     36 C         -0.926248   3.294562   -1.627956 C.3        1 UNL1     0.0854
     37 C         -0.733305   1.73114   -1.705462 C.3        1 UNL1     0.0236
     38 C         -1.808617   0.875644   -0.878676 C.3        1 UNL1     0.1131
     39 C         -2.092517   1.226041   0.637534 C.3        1 UNL1     0.0200
     40 C         -0.832121   1.560698   1.677652 C.3        1 UNL1     0.0661
     41 C         0.564317   0.619489   1.881855 C.3        1 UNL1     0.0091
     42 C         2.282029   1.11302   2.295733 C.3        1 UNL1     0.0661
     43 C         8.649683   5.684679   -1.522943 C.2        1 UNL1     0.2131
     44 O         9.490592   6.213171   -2.227432 O.2        1 UNL1     -0.2851
     45 O         7.881887   8.274575   -2.276473 O.3        1 UNL1     -0.5056
     46 O         3.527779   4.046242   0.05591 O.2        1 UNL1     -0.2836
     47 C         2.966635   2.706067   4.323375 C.3        1 UNL1     -0.0566
     48 O         2.447759   0.078229   3.344951 O.3        1 UNL1     -0.3909
     49 C         0.652597   -0.375457   0.74617 C.3        1 UNL1     -0.0577
     50 O         -0.487902   2.930482   1.623528 O.3        1 UNL1     -0.3910
     51 O         -1.897813   3.750825   -0.713999 O.3        1 UNL1     -0.3753
     52 C         0.777817   1.333572   -1.763743 C.3        1 UNL1     -0.0564
     53 O         -1.825568   -0.580302   -1.242351 O.3        1 UNL1     -0.4608
     54 C         -2.016079   -1.616558   -0.366104 C.2        1 UNL1     0.3042
     55 O         -2.716053   -2.614913   -0.530916 O.2        1 UNL1     -0.2512
     56 C         -1.212014   -1.491878   0.89669 C.3        1 UNL1     0.0332
     57 C         -3.36891   2.188985   0.679166 C.3        1 UNL1     -0.0567
     58 C         2.534918   5.233801   -2.852872 C.3        1 UNL1     0.0210
     59 C         -3.090742   4.257648   -1.310585 C.3        1 UNL1     0.0372
     60 C         0.315565   4.068733   -1.356443 C.2        1 UNL1     -0.0208
     61 C         0.536334   5.082659   -0.518612 C.2        1 UNL1     0.0882
     62 H         3.250755   3.039115   2.227504 H        1 UNL1     0.0365
     63 H         5.134762   3.824563   2.165738 H        1 UNL1     0.0576
     64 H         7.11205   2.1022   3.784556 H        1 UNL1     0.0615
     65 H         7.472894   4.628687   1.983302 H        1 UNL1     0.0622
     66 H         -1.24655   3.583596   -2.638853 H        1 UNL1     0.0645
     67 H         -1.004686   1.478749   -2.745275 H        1 UNL1     0.0362
     68 H         -2.724285   1.158676   -1.419942 H        1 UNL1     0.0741
     69 H         -2.568793   0.376127   1.107869 H        1 UNL1     0.0359
     70 H         -1.350128   1.443832   2.64877 H        1 UNL1     0.0600
     71 H         0.238045   -0.031929   2.716216 H        1 UNL1     0.0348
     72 H         1.64292   1.954291   2.600885 H        1 UNL1     0.0602
     73 H         1.064599   3.782777   -2.05245 H        1 UNL1     0.0628
     74 H         -0.155957   5.399296   0.262228 H        1 UNL1     0.1022
     75 H         10.58808   2.518738   3.5771 H        1 UNL1     0.0279
     76 H         11.256016   2.684382   2.002387 H        1 UNL1     0.0279
     77 H         11.41313   3.986092   3.249849 H        1 UNL1     0.0279
     78 H         10.317882   3.33038   0.045987 H        1 UNL1     0.1553
     79 H         8.959036   1.915622   0.325671 H        1 UNL1     0.1484
     80 H         6.053074   0.352884   -1.559197 H        1 UNL1     0.0317
     81 H         7.06015   1.619447   -2.245887 H        1 UNL1     0.0317
     82 H         9.122894   0.603956   -1.242109 H        1 UNL1     0.0428
     83 H         8.25636   -0.508872   -2.277695 H        1 UNL1     0.0428
     84 H         7.656819   -0.946941   1.91179 H        1 UNL1     0.0428
     85 H         8.757636   0.291627   1.418563 H        1 UNL1     0.0428
     86 H         6.440691   1.006553   2.006355 H        1 UNL1     0.0317
     87 H         5.730544   0.054698   0.784875 H        1 UNL1     0.0317
     88 H         8.548989   -2.824086   0.320653 H        1 UNL1     0.0429
     89 H         9.174522   -2.322953   -1.252182 H        1 UNL1     0.0429
     90 H         10.33994   -0.4741   0.528064 H        1 UNL1     0.0308
     91 H         11.333023   -1.899359   2.364499 H        1 UNL1     0.0233
     92 H         9.563661   -1.749151   2.513803 H        1 UNL1     0.0233
     93 H         10.275594   -3.231231   1.91281 H        1 UNL1     0.0233
     94 H         12.306407   -2.317871   0.275454 H        1 UNL1     0.0233
     95 H         11.209723   -2.827979   -1.017374 H        1 UNL1     0.0233
     96 H         11.845138   -1.166729   -0.995356 H        1 UNL1     0.0233
     97 H         5.352689   9.966923   -2.136856 H        1 UNL1     0.0280
     98 H         5.469055   9.160756   -3.677551 H        1 UNL1     0.0280
     99 H         3.959311   9.041359   -2.725633 H        1 UNL1     0.0280
     100 H         8.139754   8.207549   -3.179044 H        1 UNL1     0.2922
     101 H         1.910045   2.439987   4.34514 H        1 UNL1     0.0236
     102 H         3.12923   3.755443   4.567007 H        1 UNL1     0.0236
     103 H         3.412688   2.149864   5.164724 H        1 UNL1     0.0236
     104 H         3.234469   0.3171   3.873153 H        1 UNL1     0.2098
     105 H         1.642431   -0.468334   0.306383 H        1 UNL1     0.0234
     106 H         0.245335   -1.361002   0.971487 H        1 UNL1     0.0234
     107 H         0.0   0.0   0.0 H        1 UNL1     0.0234
     108 H         0.341351   3.041339   2.127333 H        1 UNL1     0.2098
     109 H         1.282642   1.746037   -2.648467 H        1 UNL1     0.0234
     110 H         1.331845   1.614385   -0.861557 H        1 UNL1     0.0234
     111 H         0.907738   0.245017   -1.827894 H        1 UNL1     0.0234
     112 H         -1.790607   -0.955452   1.65486 H        1 UNL1     0.0342
     113 H         -0.882392   -2.460438   1.269632 H        1 UNL1     0.0342
     114 H         -0.314836   -0.897697   0.674912 H        1 UNL1     0.0342
     115 H         -3.755296   2.311018   1.700441 H        1 UNL1     0.0234
     116 H         -3.185475   3.186937   0.276062 H        1 UNL1     0.0234
     117 H         -4.252007   1.771317   0.165712 H        1 UNL1     0.0234
     118 H         2.262353   6.008409   -3.590907 H        1 UNL1     0.0309
     119 H         3.430742   4.708625   -3.199128 H        1 UNL1     0.0309
     120 H         1.713084   4.51332   -2.927717 H        1 UNL1     0.0309
     121 H         -3.935809   3.78419   -0.81153 H        1 UNL1     0.0524
     122 H         -3.19468   5.347392   -1.17757 H        1 UNL1     0.0524
     123 H         -3.106395   4.028981   -2.372452 H        1 UNL1     0.0524
@<TRIPOS>BOND
     1     1     2    1
     2     1    42    1
     3     2     3    2
     4     3     4    1
     5     4     5    2
     6     5     7    1
     7     6    75    1
     8     6    76    1
     9     6    77    1
    10     7     9   am
    11     9    10    1
    12    10    11    2
    13    10    43    1
    14    11    14    1
    15    11    15    1
    16    12    13   ar
    17    12    27   ar
    18    12    43    1
    19    13    14    1
    20    13    30   ar
    21    14    17    2
    22    15    16    1
    23    16    17    1
    24    16    18    1
    25    16    22    1
    26    18    19    1
    27    19    20    1
    28    20    21    1
    29    21    22    1
    30    23    24    1
    31    23    88    1
    32    23    89    1
    33    24    25    1
    34    24    26    1
    35    24    90    1
    36    25    91    1
    37    25    92    1
    38    25    93    1
    39    26    94    1
    40    26    95    1
    41    26    96    1
    42    27    28   ar
    43    28    29   ar
    44    29    30   ar
    45    29    31    1
    46    30    33    1
    47    31    32    1
    48    32    33    1
    49    32    35    1
    50    34    97    1
    51    34    98    1
    52    34    99    1
    53    35    61    1
    54    36    37    1
    55    36    60    1
    56    37    38    1
    57    38    39    1
    58    39    40    1
    59    40    41    1
    60    41    42    1
    61    45   100    1
    62    47   101    1
    63    47   102    1
    64    47   103    1
    65    48   104    1
    66    49   105    1
    67    49   106    1
    68    49   107    1
    69    50   108    1
    70    51    59    1
    71    52   109    1
    72    52   110    1
    73    52   111    1
    74    53    54    1
    75    54    55    2
    76    54    56    1
    77    56   112    1
    78    56   113    1
    79    56   114    1
    80    57   115    1
    81    57   116    1
    82    57   117    1
    83    58   118    1
    84    58   119    1
    85    58   120    1
    86    59   121    1
    87    59   122    1
    88    59   123    1
    89    60    61    2
    90     1    47    1
    91     1    62    1
    92     2    63    1
    93     3    64    1
    94     4    65    1
    95     5     6    1
    96     7     8    2
    97     9    78    1
    98    15    79    1
    99    18    80    1
   100    18    81    1
   101    19    82    1
   102    19    83    1
   103    20    23    1
   104    21    84    1
   105    21    85    1
   106    22    86    1
   107    22    87    1
   108    27    45    1
   109    28    34    1
   110    32    58    1
   111    33    46    2
   112    36    51    1
   113    36    66    1
   114    37    52    1
   115    37    67    1
   116    38    53    1
   117    38    68    1
   118    42    48    1
   119    42    72    1
   120    43    44    2
   121    60    73    1
   122    61    74    1
   123    39    69    1
   124    39    57    1
   125    40    70    1
   126    40    50    1
   127    41    71    1
   128    41    49    1
