@<TRIPOS>MOLECULE
*****
 123 128 0 0 0
SMALL
GASTEIGER

@<TRIPOS>ATOM
     1 C         4.346709   2.999595   1.456126 C.3        1 UNL1     0.0009
     2 C         5.655501   4.182045   0.885236 C.2        1 UNL1     -0.0787
     3 C         7.022054   4.446515   0.486948 C.2        1 UNL1     -0.0649
     4 C         7.670455   5.891497   -0.111348 C.2        1 UNL1     -0.0542
     5 C         8.739496   6.471229   -0.838081 C.2        1 UNL1     0.0115
     6 C         10.140091   6.192632   -1.44967 C.3        1 UNL1     -0.0348
     7 C         8.554504   7.943767   -1.449963 C.2        1 UNL1     0.2441
     8 O         9.040184   8.942978   -0.93789 O.2        1 UNL1     -0.2702
     9 N         8.020584   7.978602   -2.749912 N.am        1 UNL1     -0.2772
     10 C         6.645579   8.002234   -2.703818 C.2        1 UNL1     0.1049
     11 C         6.047855   6.833337   -2.560194 C.2        1 UNL1     0.0801
     12 C         4.717087   9.165527   -1.61524 C.ar        1 UNL1     0.0753
     13 C         4.212321   7.864235   -1.29829 C.ar        1 UNL1     0.0305
     14 C         4.795718   6.655601   -1.876133 C.2        1 UNL1     0.0924
     15 N         6.547572   5.589587   -2.659682 N.pl3        1 UNL1     -0.3170
     16 C         5.446337   4.66644   -2.586645 C.3        1 UNL1     0.1275
     17 N         4.400078   5.389879   -1.774424 N.2        1 UNL1     -0.2557
     18 C         4.873009   4.534249   -3.99431 C.3        1 UNL1     0.0016
     19 C         5.988252   4.107874   -4.9356 C.3        1 UNL1     0.0026
     20 N         6.533559   2.83997   -4.470745 N.3        1 UNL1     -0.3018
     21 C         7.054071   2.851501   -3.102058 C.3        1 UNL1     0.0026
     22 C         5.916084   3.27797   -2.173078 C.3        1 UNL1     0.0016
     23 C         7.388054   2.200254   -5.451175 C.3        1 UNL1     0.0012
     24 C         6.555834   1.682283   -6.634759 C.3        1 UNL1     -0.0339
     25 C         7.144041   0.383425   -7.210118 C.3        1 UNL1     -0.0615
     26 C         5.107758   1.501727   -6.213744 C.3        1 UNL1     -0.0615
     27 C         4.081675   10.317369   -1.157387 C.ar        1 UNL1     0.1347
     28 C         2.916752   10.295019   -0.411394 C.ar        1 UNL1     0.0342
     29 C         2.465463   9.002287   -0.070297 C.ar        1 UNL1     0.1435
     30 C         3.111943   7.83955   -0.491398 C.ar        1 UNL1     0.0774
     31 O         1.285461   8.810998   0.558996 O.3        1 UNL1     -0.4436
     32 C         0.959298   7.435705   0.307874 C.3        1 UNL1     0.3143
     33 C         2.283723   6.762572   0.009537 C.2        1 UNL1     0.2504
     34 C         2.04597   11.480424   -0.100505 C.3        1 UNL1     -0.0327
     35 O         0.47703   6.880851   1.537835 O.2        1 UNL1     -0.4528
     36 C         -1.993849   4.1708   0.558818 C.3        1 UNL1     0.0854
     37 C         -1.771694   2.901108   -0.350055 C.3        1 UNL1     0.0236
     38 C         -2.158157   1.503579   0.335003 C.3        1 UNL1     0.1131
     39 C         -1.586921   1.146216   1.766174 C.3        1 UNL1     0.0200
     40 C         0.011859   1.444929   2.136459 C.3        1 UNL1     0.0661
     41 C         1.350506   0.99223   1.198003 C.3        1 UNL1     0.0091
     42 C         2.976704   1.810601   0.971834 C.3        1 UNL1     0.0661
     43 C         5.888594   9.249781   -2.522286 C.2        1 UNL1     0.2131
     44 O         6.168384   10.242277   -3.169902 O.2        1 UNL1     -0.2851
     45 O         4.663465   11.543627   -1.472424 O.3        1 UNL1     -0.5056
     46 O         2.59271   5.603015   0.170184 O.2        1 UNL1     -0.2836
     47 C         4.553267   2.64875   2.954199 C.3        1 UNL1     -0.0566
     48 O         3.758748   0.567039   1.174508 O.3        1 UNL1     -0.3909
     49 C         0.867571   0.583169   -0.175655 C.3        1 UNL1     -0.0577
     50 O         0.178237   2.766308   2.609745 O.3        1 UNL1     -0.3910
     51 O         -2.333107   3.914534   1.90294 O.3        1 UNL1     -0.3753
     52 C         -0.517416   3.056815   -1.270648 C.3        1 UNL1     -0.0564
     53 O         -2.275005   0.368753   -0.640109 O.3        1 UNL1     -0.4608
     54 C         -1.884687   -0.923882   -0.406275 C.2        1 UNL1     0.3042
     55 O         -1.217805   -1.647842   -1.144508 O.2        1 UNL1     -0.2512
     56 C         -2.299222   -1.442872   0.941139 C.3        1 UNL1     0.0332
     57 C         -2.692161   1.563164   2.844493 C.3        1 UNL1     -0.0567
     58 C         0.091525   7.418629   -0.972051 C.3        1 UNL1     0.0210
     59 C         -3.688356   4.201964   2.244335 C.3        1 UNL1     0.0372
     60 C         -0.861086   5.136005   0.578552 C.2        1 UNL1     -0.0208
     61 C         -0.285038   5.772052   1.599511 C.2        1 UNL1     0.0882
     62 H         3.619075   3.819498   1.424181 H        1 UNL1     0.0365
     63 H         5.103788   5.124089   0.91047 H        1 UNL1     0.0576
     64 H         7.754042   3.642368   0.38375 H        1 UNL1     0.0615
     65 H         6.899718   6.634588   0.110603 H        1 UNL1     0.0622
     66 H         -2.834247   4.702038   0.090243 H        1 UNL1     0.0645
     67 H         -2.551217   2.987744   -1.126842 H        1 UNL1     0.0362
     68 H         -3.237067   1.663434   0.483062 H        1 UNL1     0.0741
     69 H         -1.669738   0.078163   1.917211 H        1 UNL1     0.0359
     70 H         0.120117   0.812423   3.038278 H        1 UNL1     0.0600
     71 H         1.57913   0.00712   1.649941 H        1 UNL1     0.0348
     72 H         2.555311   2.224524   1.899418 H        1 UNL1     0.0602
     73 H         -0.599178   5.387573   -0.419129 H        1 UNL1     0.0628
     74 H         -0.455169   5.533175   2.649859 H        1 UNL1     0.1022
     75 H         10.411208   5.115541   -1.333893 H        1 UNL1     0.0279
     76 H         10.240395   6.345502   -2.521882 H        1 UNL1     0.0279
     77 H         10.95242   6.681777   -0.892393 H        1 UNL1     0.0279
     78 H         8.295759   7.139003   -3.255312 H        1 UNL1     0.1553
     79 H         7.410115   5.371365   -3.12372 H        1 UNL1     0.1484
     80 H         4.057844   3.8007   -3.980914 H        1 UNL1     0.0317
     81 H         4.436931   5.481337   -4.329737 H        1 UNL1     0.0317
     82 H         6.774341   4.873786   -5.008781 H        1 UNL1     0.0428
     83 H         5.558069   4.02136   -5.933852 H        1 UNL1     0.0428
     84 H         7.383982   1.869162   -2.749952 H        1 UNL1     0.0428
     85 H         7.949136   3.482197   -3.010412 H        1 UNL1     0.0428
     86 H         6.292247   3.147041   -1.175408 H        1 UNL1     0.0317
     87 H         5.093763   2.554437   -2.231252 H        1 UNL1     0.0317
     88 H         8.098983   2.948756   -5.824833 H        1 UNL1     0.0429
     89 H         7.978786   1.393108   -4.999154 H        1 UNL1     0.0429
     90 H         6.545317   2.441335   -7.425925 H        1 UNL1     0.0308
     91 H         7.399791   -0.323655   -6.415302 H        1 UNL1     0.0233
     92 H         6.438168   -0.089197   -7.897127 H        1 UNL1     0.0233
     93 H         8.060434   0.559337   -7.78641 H        1 UNL1     0.0233
     94 H         5.023105   0.679511   -5.494973 H        1 UNL1     0.0233
     95 H         4.743242   2.411882   -5.729276 H        1 UNL1     0.0233
     96 H         4.467666   1.277943   -7.071748 H        1 UNL1     0.0233
     97 H         1.031497   11.347369   -0.464335 H        1 UNL1     0.0280
     98 H         1.95722   11.656834   0.97943 H        1 UNL1     0.0280
     99 H         2.467413   12.382231   -0.574028 H        1 UNL1     0.0280
     100 H         5.585278   11.597788   -1.290898 H        1 UNL1     0.2922
     101 H         3.624736   2.260603   3.372324 H        1 UNL1     0.0236
     102 H         4.949257   3.478876   3.538207 H        1 UNL1     0.0236
     103 H         5.284123   1.834447   3.091872 H        1 UNL1     0.0236
     104 H         3.124463   -0.174082   1.232764 H        1 UNL1     0.2098
     105 H         0.585846   1.413465   -0.818345 H        1 UNL1     0.0234
     106 H         1.531637   -0.097934   -0.707671 H        1 UNL1     0.0234
     107 H         0.0   -0.0   0.0 H        1 UNL1     0.0234
     108 H         1.134822   2.962315   2.592574 H        1 UNL1     0.2098
     109 H         -0.607593   3.91156   -1.955477 H        1 UNL1     0.0234
     110 H         0.420731   3.133469   -0.710516 H        1 UNL1     0.0234
     111 H         -0.373793   2.176527   -1.911282 H        1 UNL1     0.0234
     112 H         -1.766087   -2.372572   1.16198 H        1 UNL1     0.0342
     113 H         -2.14429   -0.70707   1.728815 H        1 UNL1     0.0342
     114 H         -3.373394   -1.670986   0.905323 H        1 UNL1     0.0342
     115 H         -2.691521   0.888589   3.711751 H        1 UNL1     0.0234
     116 H         -2.582847   2.582151   3.221011 H        1 UNL1     0.0234
     117 H         -3.727629   1.443275   2.482037 H        1 UNL1     0.0234
     118 H         -0.957643   7.149438   -0.75807 H        1 UNL1     0.0309
     119 H         0.113665   8.366666   -1.518803 H        1 UNL1     0.0309
     120 H         0.409128   6.649916   -1.685013 H        1 UNL1     0.0309
     121 H         -3.739839   5.250959   2.534706 H        1 UNL1     0.0524
     122 H         -4.373707   4.059347   1.392283 H        1 UNL1     0.0524
     123 H         -4.011205   3.569246   3.066241 H        1 UNL1     0.0524
@<TRIPOS>BOND
     1     1     2    1
     2     1    42    1
     3     2     3    2
     4     3     4    1
     5     4     5    2
     6     5     7    1
     7     6    75    1
     8     6    76    1
     9     6    77    1
    10     7     9   am
    11     9    10    1
    12    10    11    2
    13    10    43    1
    14    11    14    1
    15    11    15    1
    16    12    13   ar
    17    12    27   ar
    18    12    43    1
    19    13    14    1
    20    13    30   ar
    21    14    17    2
    22    15    16    1
    23    16    17    1
    24    16    18    1
    25    16    22    1
    26    18    19    1
    27    19    20    1
    28    20    21    1
    29    21    22    1
    30    23    24    1
    31    23    88    1
    32    23    89    1
    33    24    25    1
    34    24    26    1
    35    24    90    1
    36    25    91    1
    37    25    92    1
    38    25    93    1
    39    26    94    1
    40    26    95    1
    41    26    96    1
    42    27    28   ar
    43    28    29   ar
    44    29    30   ar
    45    29    31    1
    46    30    33    1
    47    31    32    1
    48    32    33    1
    49    32    35    1
    50    34    97    1
    51    34    98    1
    52    34    99    1
    53    35    61    1
    54    36    37    1
    55    36    60    1
    56    37    38    1
    57    38    39    1
    58    39    40    1
    59    40    41    1
    60    41    42    1
    61    45   100    1
    62    47   101    1
    63    47   102    1
    64    47   103    1
    65    48   104    1
    66    49   105    1
    67    49   106    1
    68    49   107    1
    69    50   108    1
    70    51    59    1
    71    52   109    1
    72    52   110    1
    73    52   111    1
    74    53    54    1
    75    54    55    2
    76    54    56    1
    77    56   112    1
    78    56   113    1
    79    56   114    1
    80    57   115    1
    81    57   116    1
    82    57   117    1
    83    58   118    1
    84    58   119    1
    85    58   120    1
    86    59   121    1
    87    59   122    1
    88    59   123    1
    89    60    61    2
    90     1    47    1
    91     1    62    1
    92     2    63    1
    93     3    64    1
    94     4    65    1
    95     5     6    1
    96     7     8    2
    97     9    78    1
    98    15    79    1
    99    18    80    1
   100    18    81    1
   101    19    82    1
   102    19    83    1
   103    20    23    1
   104    21    84    1
   105    21    85    1
   106    22    86    1
   107    22    87    1
   108    27    45    1
   109    28    34    1
   110    32    58    1
   111    33    46    2
   112    36    51    1
   113    36    66    1
   114    37    52    1
   115    37    67    1
   116    38    53    1
   117    38    68    1
   118    42    48    1
   119    42    72    1
   120    43    44    2
   121    60    73    1
   122    61    74    1
   123    39    69    1
   124    39    57    1
   125    40    70    1
   126    40    50    1
   127    41    71    1
   128    41    49    1
