@<TRIPOS>MOLECULE
*****
 123 128 0 0 0
SMALL
GASTEIGER

@<TRIPOS>ATOM
     1 C         -0.020684   3.821262   3.030621 C.3        1 UNL1     0.0009
     2 C         -1.176732   5.129186   3.655059 C.2        1 UNL1     -0.0787
     3 C         -1.853747   6.396404   3.476576 C.2        1 UNL1     -0.0649
     4 C         -3.024961   7.100309   4.476142 C.2        1 UNL1     -0.0542
     5 C         -4.070287   8.053962   4.546263 C.2        1 UNL1     0.0115
     6 C         -4.75406   9.226751   3.79105 C.3        1 UNL1     -0.0348
     7 C         -5.132334   7.955682   5.746007 C.2        1 UNL1     0.2441
     8 O         -5.096413   8.684508   6.727866 O.2        1 UNL1     -0.2702
     9 N         -6.256473   7.1568   5.473515 N.am        1 UNL1     -0.2772
     10 C         -6.005502   5.845333   5.805763 C.2        1 UNL1     0.1049
     11 C         -5.359632   5.129585   4.903112 C.2        1 UNL1     0.0801
     12 C         -5.117004   4.399879   7.643852 C.ar        1 UNL1     0.0753
     13 C         -4.278849   3.79287   6.655093 C.ar        1 UNL1     0.0305
     14 C         -4.468892   4.049   5.229144 C.2        1 UNL1     0.0924
     15 N         -5.083793   5.40641   3.617107 N.pl3        1 UNL1     -0.3170
     16 C         -4.511553   4.225762   3.026458 C.3        1 UNL1     0.1275
     17 N         -3.858742   3.504467   4.180275 N.2        1 UNL1     -0.2557
     18 C         -5.66864   3.34039   2.573723 C.3        1 UNL1     0.0016
     19 C         -6.557664   4.143059   1.637268 C.3        1 UNL1     0.0026
     20 N         -5.761174   4.585918   0.501263 N.3        1 UNL1     -0.3018
     21 C         -4.588319   5.393991   0.841552 C.3        1 UNL1     0.0026
     22 C         -3.707062   4.566675   1.779012 C.3        1 UNL1     0.0016
     23 C         -6.568504   5.097241   -0.588422 C.3        1 UNL1     0.0012
     24 C         -6.243593   4.354566   -1.894034 C.3        1 UNL1     -0.0339
     25 C         -7.484412   4.228891   -2.793274 C.3        1 UNL1     -0.0615
     26 C         -5.098558   5.044746   -2.614677 C.3        1 UNL1     -0.0615
     27 C         -5.008762   4.058564   8.989922 C.ar        1 UNL1     0.1347
     28 C         -4.130565   3.098641   9.460419 C.ar        1 UNL1     0.0342
     29 C         -3.281708   2.549804   8.475846 C.ar        1 UNL1     0.1435
     30 C         -3.353978   2.908369   7.12921 C.ar        1 UNL1     0.0774
     31 O         -2.447878   1.524557   8.756208 O.3        1 UNL1     -0.4436
     32 C         -2.133977   0.952341   7.477573 C.3        1 UNL1     0.3143
     33 C         -2.375986   2.063523   6.476114 C.2        1 UNL1     0.2504
     34 C         -4.132414   2.502689   10.840614 C.3        1 UNL1     -0.0327
     35 O         -0.727241   0.679897   7.466591 O.2        1 UNL1     -0.4528
     36 C         -0.265542   -2.317413   5.183818 C.3        1 UNL1     0.0854
     37 C         -0.681195   -2.492106   3.672448 C.3        1 UNL1     0.0236
     38 C         0.511464   -2.917276   2.688304 C.3        1 UNL1     0.1131
     39 C         1.866153   -2.100577   2.697803 C.3        1 UNL1     0.0200
     40 C         1.847263   -0.433404   2.748915 C.3        1 UNL1     0.0661
     41 C         0.935026   0.581342   1.741082 C.3        1 UNL1     0.0091
     42 C         0.176637   2.218458   2.072892 C.3        1 UNL1     0.0661
     43 C         -6.166615   5.339383   7.177044 C.2        1 UNL1     0.2131
     44 O         -7.162668   5.610601   7.822843 O.2        1 UNL1     -0.2851
     45 O         -5.830393   4.729216   9.893573 O.3        1 UNL1     -0.5056
     46 O         -1.86093   2.226805   5.392643 O.2        1 UNL1     -0.2836
     47 C         1.45078   4.302344   3.146108 C.3        1 UNL1     -0.0566
     48 O         0.685824   2.834683   0.823848 O.3        1 UNL1     -0.3909
     49 C         -0.105705   -0.249998   1.024669 C.3        1 UNL1     -0.0577
     50 O         1.782312   0.026361   4.083876 O.3        1 UNL1     -0.3910
     51 O         1.116513   -2.382764   5.454159 O.3        1 UNL1     -0.3753
     52 C         -1.781971   -1.465353   3.249341 C.3        1 UNL1     -0.0564
     53 O         0.039996   -3.413635   1.352762 O.3        1 UNL1     -0.4608
     54 C         0.595845   -4.449048   0.647863 C.2        1 UNL1     0.3042
     55 O         0.014679   -5.418155   0.161124 O.2        1 UNL1     -0.2512
     56 C         2.074778   -4.30209   0.429059 C.3        1 UNL1     0.0332
     57 C         2.883044   -2.864482   3.667626 C.3        1 UNL1     -0.0567
     58 C         -3.16837   -0.171467   7.235461 C.3        1 UNL1     0.0210
     59 C         1.582858   -1.444399   6.42259 C.3        1 UNL1     0.0372
     60 C         -0.772501   -1.07955   5.836387 C.2        1 UNL1     -0.0208
     61 C         -0.152382   -0.203662   6.628231 C.2        1 UNL1     0.0882
     62 H         -0.229388   3.233274   3.932521 H        1 UNL1     0.0365
     63 H         -1.404427   4.741413   4.650176 H        1 UNL1     0.0576
     64 H         -1.775711   6.960815   2.544664 H        1 UNL1     0.0615
     65 H         -2.965725   6.516024   5.398414 H        1 UNL1     0.0622
     66 H         -0.754565   -3.153682   5.703007 H        1 UNL1     0.0645
     67 H         -1.303855   -3.403613   3.669286 H        1 UNL1     0.0362
     68 H         0.760626   -3.900668   3.115364 H        1 UNL1     0.0741
     69 H         2.401384   -2.30361   1.779809 H        1 UNL1     0.0359
     70 H         2.886761   -0.221171   2.433542 H        1 UNL1     0.0600
     71 H         1.668157   0.757642   0.929666 H        1 UNL1     0.0348
     72 H         0.947995   2.079628   2.844285 H        1 UNL1     0.0602
     73 H         -1.821944   -1.012307   5.69011 H        1 UNL1     0.0628
     74 H         0.926473   -0.168863   6.783468 H        1 UNL1     0.1022
     75 H         -5.777951   9.410549   4.197127 H        1 UNL1     0.0279
     76 H         -4.285503   10.203733   3.886068 H        1 UNL1     0.0279
     77 H         -4.977304   8.984209   2.741748 H        1 UNL1     0.0279
     78 H         -6.463625   7.186194   4.477371 H        1 UNL1     0.1553
     79 H         -5.568552   6.102353   3.080819 H        1 UNL1     0.1484
     80 H         -5.264451   2.450015   2.077105 H        1 UNL1     0.0317
     81 H         -6.248195   2.984507   3.432277 H        1 UNL1     0.0317
     82 H         -7.023876   4.996854   2.150682 H        1 UNL1     0.0428
     83 H         -7.377086   3.493505   1.327949 H        1 UNL1     0.0428
     84 H         -3.964012   5.646089   -0.021291 H        1 UNL1     0.0428
     85 H         -4.87158   6.369654   1.260073 H        1 UNL1     0.0428
     86 H         -2.801632   5.132104   1.89932 H        1 UNL1     0.0317
     87 H         -3.37118   3.654938   1.270076 H        1 UNL1     0.0317
     88 H         -7.624218   4.924571   -0.341547 H        1 UNL1     0.0429
     89 H         -6.438866   6.180776   -0.706411 H        1 UNL1     0.0429
     90 H         -5.882779   3.347363   -1.654099 H        1 UNL1     0.0308
     91 H         -7.627729   5.127272   -3.401118 H        1 UNL1     0.0233
     92 H         -7.398481   3.360792   -3.451019 H        1 UNL1     0.0233
     93 H         -8.405742   4.085099   -2.215945 H        1 UNL1     0.0233
     94 H         -4.169096   4.926311   -2.047306 H        1 UNL1     0.0233
     95 H         -4.951642   4.594158   -3.600247 H        1 UNL1     0.0233
     96 H         -5.29275   6.113578   -2.740596 H        1 UNL1     0.0233
     97 H         -3.919229   1.438012   10.824999 H        1 UNL1     0.0280
     98 H         -3.367542   2.952891   11.486792 H        1 UNL1     0.0280
     99 H         -5.121156   2.650353   11.305027 H        1 UNL1     0.0280
     100 H         -5.391025   5.377048   10.415964 H        1 UNL1     0.2922
     101 H         1.47385   5.380545   3.302972 H        1 UNL1     0.0236
     102 H         2.06859   3.998591   2.301698 H        1 UNL1     0.0236
     103 H         1.956367   3.879988   4.030523 H        1 UNL1     0.0236
     104 H         0.72927   2.132928   0.145157 H        1 UNL1     0.2098
     105 H         0.033037   -1.323893   1.121162 H        1 UNL1     0.0234
     106 H         -1.137559   0.019336   1.249755 H        1 UNL1     0.0234
     107 H         0.0   0.0   0.0 H        1 UNL1     0.0234
     108 H         1.779113   1.002529   4.054671 H        1 UNL1     0.2098
     109 H         -2.398988   -1.835643   2.418747 H        1 UNL1     0.0234
     110 H         -2.428952   -1.161519   4.079307 H        1 UNL1     0.0234
     111 H         -1.342226   -0.523196   2.895916 H        1 UNL1     0.0234
     112 H         2.349999   -4.717806   -0.544994 H        1 UNL1     0.0342
     113 H         2.401143   -3.267034   0.518435 H        1 UNL1     0.0342
     114 H         2.595466   -4.883264   1.202548 H        1 UNL1     0.0342
     115 H         3.352646   -3.724798   3.17112 H        1 UNL1     0.0234
     116 H         3.683855   -2.233011   4.057491 H        1 UNL1     0.0234
     117 H         2.389416   -3.355835   4.52369 H        1 UNL1     0.0234
     118 H         -2.853303   -1.129016   7.685836 H        1 UNL1     0.0309
     119 H         -4.170231   0.081683   7.59656 H        1 UNL1     0.0309
     120 H         -3.281709   -0.416872   6.173841 H        1 UNL1     0.0309
     121 H         0.721561   -1.112997   7.001983 H        1 UNL1     0.0524
     122 H         2.303728   -1.892825   7.126363 H        1 UNL1     0.0524
     123 H         2.051539   -0.597275   5.929829 H        1 UNL1     0.0524
@<TRIPOS>BOND
     1     1     2    1
     2     1    42    1
     3     2     3    2
     4     3     4    1
     5     4     5    2
     6     5     7    1
     7     6    75    1
     8     6    76    1
     9     6    77    1
    10     7     9   am
    11     9    10    1
    12    10    11    2
    13    10    43    1
    14    11    14    1
    15    11    15    1
    16    12    13   ar
    17    12    27   ar
    18    12    43    1
    19    13    14    1
    20    13    30   ar
    21    14    17    2
    22    15    16    1
    23    16    17    1
    24    16    18    1
    25    16    22    1
    26    18    19    1
    27    19    20    1
    28    20    21    1
    29    21    22    1
    30    23    24    1
    31    23    88    1
    32    23    89    1
    33    24    25    1
    34    24    26    1
    35    24    90    1
    36    25    91    1
    37    25    92    1
    38    25    93    1
    39    26    94    1
    40    26    95    1
    41    26    96    1
    42    27    28   ar
    43    28    29   ar
    44    29    30   ar
    45    29    31    1
    46    30    33    1
    47    31    32    1
    48    32    33    1
    49    32    35    1
    50    34    97    1
    51    34    98    1
    52    34    99    1
    53    35    61    1
    54    36    37    1
    55    36    60    1
    56    37    38    1
    57    38    39    1
    58    39    40    1
    59    40    41    1
    60    41    42    1
    61    45   100    1
    62    47   101    1
    63    47   102    1
    64    47   103    1
    65    48   104    1
    66    49   105    1
    67    49   106    1
    68    49   107    1
    69    50   108    1
    70    51    59    1
    71    52   109    1
    72    52   110    1
    73    52   111    1
    74    53    54    1
    75    54    55    2
    76    54    56    1
    77    56   112    1
    78    56   113    1
    79    56   114    1
    80    57   115    1
    81    57   116    1
    82    57   117    1
    83    58   118    1
    84    58   119    1
    85    58   120    1
    86    59   121    1
    87    59   122    1
    88    59   123    1
    89    60    61    2
    90     1    47    1
    91     1    62    1
    92     2    63    1
    93     3    64    1
    94     4    65    1
    95     5     6    1
    96     7     8    2
    97     9    78    1
    98    15    79    1
    99    18    80    1
   100    18    81    1
   101    19    82    1
   102    19    83    1
   103    20    23    1
   104    21    84    1
   105    21    85    1
   106    22    86    1
   107    22    87    1
   108    27    45    1
   109    28    34    1
   110    32    58    1
   111    33    46    2
   112    36    51    1
   113    36    66    1
   114    37    52    1
   115    37    67    1
   116    38    53    1
   117    38    68    1
   118    42    48    1
   119    42    72    1
   120    43    44    2
   121    60    73    1
   122    61    74    1
   123    39    69    1
   124    39    57    1
   125    40    70    1
   126    40    50    1
   127    41    71    1
   128    41    49    1
