@<TRIPOS>MOLECULE
*****
 123 128 0 0 0
SMALL
GASTEIGER

@<TRIPOS>ATOM
     1 C         -3.234994   -1.214496   -2.292193 C.3        1 UNL1     0.0009
     2 C         -3.359846   -2.737346   -3.342135 C.2        1 UNL1     -0.0787
     3 C         -3.301993   -3.37645   -4.63992 C.2        1 UNL1     -0.0649
     4 C         -3.402481   -5.029601   -4.991135 C.2        1 UNL1     -0.0542
     5 C         -3.120024   -6.031695   -5.951918 C.2        1 UNL1     0.0115
     6 C         -2.666193   -6.27507   -7.417567 C.3        1 UNL1     -0.0348
     7 C         -3.093481   -7.568036   -5.487224 C.2        1 UNL1     0.2441
     8 O         -4.013535   -8.344685   -5.703658 O.2        1 UNL1     -0.2702
     9 N         -1.840121   -8.028999   -5.048187 N.am        1 UNL1     -0.2772
     10 C         -1.684764   -7.789063   -3.702223 C.2        1 UNL1     0.1049
     11 C         -1.281843   -6.576019   -3.369955 C.2        1 UNL1     0.0801
     12 C         -2.830949   -8.054818   -1.494743 C.ar        1 UNL1     0.0753
     13 C         -2.549855   -6.669428   -1.270489 C.ar        1 UNL1     0.0305
     14 C         -1.65066   -5.919825   -2.1449 C.2        1 UNL1     0.0924
     15 N         -0.79333   -5.587343   -4.13833 N.pl3        1 UNL1     -0.3170
     16 C         -0.343806   -4.534606   -3.266591 C.3        1 UNL1     0.1275
     17 N         -1.203019   -4.672374   -2.033507 N.2        1 UNL1     -0.2557
     18 C         1.077265   -4.88203   -2.833514 C.3        1 UNL1     0.0016
     19 C         1.931013   -5.075221   -4.076648 C.3        1 UNL1     0.0026
     20 N         1.906793   -3.845468   -4.856487 N.3        1 UNL1     -0.3018
     21 C         0.575087   -3.396078   -5.267554 C.3        1 UNL1     0.0026
     22 C         -0.264048   -3.203919   -4.003108 C.3        1 UNL1     0.0016
     23 C         2.916494   -3.816843   -5.895875 C.3        1 UNL1     0.0012
     24 C         4.185019   -3.108421   -5.395137 C.3        1 UNL1     -0.0339
     25 C         3.852006   -2.030674   -4.35033 C.3        1 UNL1     -0.0615
     26 C         5.17087   -4.128045   -4.851773 C.3        1 UNL1     -0.0615
     27 C         -3.591236   -8.792599   -0.590442 C.ar        1 UNL1     0.1347
     28 C         -4.088729   -8.266376   0.588388 C.ar        1 UNL1     0.0342
     29 C         -3.840955   -6.888377   0.764152 C.ar        1 UNL1     0.1435
     30 C         -3.111732   -6.127954   -0.150839 C.ar        1 UNL1     0.0774
     31 O         -4.165463   -6.25481   1.912322 O.3        1 UNL1     -0.4436
     32 C         -3.36458   -5.063407   1.90795 C.3        1 UNL1     0.3143
     33 C         -3.035261   -4.812797   0.450227 C.2        1 UNL1     0.2504
     34 C         -4.692308   -9.051999   1.719135 C.3        1 UNL1     -0.0327
     35 O         -4.203868   -3.984374   2.337526 O.2        1 UNL1     -0.4528
     36 C         -1.909371   -1.509272   4.074547 C.3        1 UNL1     0.0854
     37 C         -0.630613   -0.774509   3.515599 C.3        1 UNL1     0.0236
     38 C         -0.666668   0.824779   3.628391 C.3        1 UNL1     0.1131
     39 C         -1.922807   1.621682   3.090498 C.3        1 UNL1     0.0200
     40 C         -2.6143   1.220589   1.626462 C.3        1 UNL1     0.0661
     41 C         -1.786669   1.012767   0.160363 C.3        1 UNL1     0.0091
     42 C         -2.135412   -0.100204   -1.255644 C.3        1 UNL1     0.0661
     43 C         -2.210982   -8.702699   -2.677178 C.2        1 UNL1     0.2131
     44 O         -2.03914   -9.904344   -2.773382 O.2        1 UNL1     -0.2851
     45 O         -3.85712   -10.123423   -0.906118 O.3        1 UNL1     -0.5056
     46 O         -2.787539   -3.761245   -0.096331 O.2        1 UNL1     -0.2836
     47 C         -4.499927   -0.332147   -2.469351 C.3        1 UNL1     -0.0566
     48 O         -1.965131   0.960265   -2.278154 O.3        1 UNL1     -0.3909
     49 C         -0.304972   0.911739   0.446479 C.3        1 UNL1     -0.0577
     50 O         -3.573471   0.195324   1.789382 O.3        1 UNL1     -0.3910
     51 O         -2.987807   -0.677606   4.43888 O.3        1 UNL1     -0.3753
     52 C         -0.037864   -1.506619   2.267556 C.3        1 UNL1     -0.0564
     53 O         0.672174   1.471542   3.424612 O.3        1 UNL1     -0.4608
     54 C         0.898522   2.820212   3.336379 C.2        1 UNL1     0.3042
     55 O         1.97046   3.408221   3.474338 O.2        1 UNL1     -0.2512
     56 C         -0.325042   3.612941   2.974183 C.3        1 UNL1     0.0332
     57 C         -2.89954   1.876797   4.331097 C.3        1 UNL1     -0.0567
     58 C         -2.059649   -5.410782   2.661617 C.3        1 UNL1     0.0210
     59 C         -3.846696   -1.215356   5.44337 C.3        1 UNL1     0.0372
     60 C         -2.464283   -2.567953   3.18774 C.2        1 UNL1     -0.0208
     61 C         -3.724326   -2.829331   2.837429 C.2        1 UNL1     0.0882
     62 H         -3.40824   -1.8353   -1.404894 H        1 UNL1     0.0365
     63 H         -3.65811   -3.475831   -2.595042 H        1 UNL1     0.0576
     64 H         -3.012046   -2.825026   -5.537121 H        1 UNL1     0.0615
     65 H         -3.771789   -5.471501   -4.061717 H        1 UNL1     0.0622
     66 H         -1.557465   -2.026911   4.978017 H        1 UNL1     0.0645
     67 H         0.162442   -1.027828   4.240481 H        1 UNL1     0.0362
     68 H         -0.700597   0.931235   4.723397 H        1 UNL1     0.0741
     69 H         -1.642278   2.656311   2.944706 H        1 UNL1     0.0359
     70 H         -3.213228   2.132933   1.442141 H        1 UNL1     0.0600
     71 H         -1.859045   2.039225   -0.24964 H        1 UNL1     0.0348
     72 H         -3.076076   -0.023765   -0.691176 H        1 UNL1     0.0602
     73 H         -1.688643   -3.242139   2.921086 H        1 UNL1     0.0628
     74 H         -4.566636   -2.161509   3.021182 H        1 UNL1     0.1022
     75 H         -1.801602   -6.981174   -7.448111 H        1 UNL1     0.0279
     76 H         -3.3862   -6.757784   -8.074566 H        1 UNL1     0.0279
     77 H         -2.230399   -5.378495   -7.882257 H        1 UNL1     0.0279
     78 H         -1.101039   -7.527231   -5.536104 H        1 UNL1     0.1553
     79 H         -0.416346   -5.730549   -5.057192 H        1 UNL1     0.1484
     80 H         1.466216   -4.074064   -2.202107 H        1 UNL1     0.0317
     81 H         1.088896   -5.790791   -2.222229 H        1 UNL1     0.0317
     82 H         1.588691   -5.931214   -4.676652 H        1 UNL1     0.0428
     83 H         2.939567   -5.323927   -3.744965 H        1 UNL1     0.0428
     84 H         0.577568   -2.430207   -5.782238 H        1 UNL1     0.0428
     85 H         0.117363   -4.083442   -5.992354 H        1 UNL1     0.0428
     86 H         -1.181316   -2.750645   -4.330447 H        1 UNL1     0.0317
     87 H         0.187492   -2.432528   -3.367369 H        1 UNL1     0.0317
     88 H         3.172849   -4.853263   -6.15163 H        1 UNL1     0.0429
     89 H         2.534246   -3.345075   -6.810258 H        1 UNL1     0.0429
     90 H         4.687265   -2.628821   -6.243634 H        1 UNL1     0.0308
     91 H         3.765761   -1.042439   -4.811909 H        1 UNL1     0.0233
     92 H         2.918762   -2.268172   -3.834326 H        1 UNL1     0.0233
     93 H         4.620474   -1.952178   -3.571786 H        1 UNL1     0.0233
     94 H         6.063296   -3.622732   -4.466977 H        1 UNL1     0.0233
     95 H         4.716559   -4.684415   -4.027141 H        1 UNL1     0.0233
     96 H         5.481037   -4.835229   -5.626147 H        1 UNL1     0.0233
     97 H         -4.902886   -8.427598   2.582275 H        1 UNL1     0.0280
     98 H         -5.649613   -9.51093   1.439481 H        1 UNL1     0.0280
     99 H         -3.994809   -9.847068   2.029707 H        1 UNL1     0.0280
     100 H         -3.923464   -10.301457   -1.827815 H        1 UNL1     0.2922
     101 H         -5.358455   -0.962428   -2.700288 H        1 UNL1     0.0236
     102 H         -4.368208   0.463852   -3.201484 H        1 UNL1     0.0236
     103 H         -4.776704   0.186978   -1.536562 H        1 UNL1     0.0236
     104 H         -1.006356   1.117154   -2.383543 H        1 UNL1     0.2098
     105 H         0.291632   1.71043   0.012926 H        1 UNL1     0.0234
     106 H         -0.052285   0.779848   1.498468 H        1 UNL1     0.0234
     107 H         0.0   0.0   0.0 H        1 UNL1     0.0234
     108 H         -3.627566   -0.288522   0.94278 H        1 UNL1     0.2098
     109 H         -0.508322   -2.485012   2.096886 H        1 UNL1     0.0234
     110 H         -0.092967   -0.908751   1.351444 H        1 UNL1     0.0234
     111 H         1.034533   -1.709579   2.388874 H        1 UNL1     0.0234
     112 H         -0.927666   3.796806   3.868825 H        1 UNL1     0.0342
     113 H         -0.074525   4.546771   2.473138 H        1 UNL1     0.0342
     114 H         -0.928726   3.013622   2.278807 H        1 UNL1     0.0342
     115 H         -2.588006   1.310201   5.219412 H        1 UNL1     0.0234
     116 H         -2.981955   2.925666   4.622869 H        1 UNL1     0.0234
     117 H         -3.919622   1.485389   4.175621 H        1 UNL1     0.0234
     118 H         -2.03353   -4.966336   3.67196 H        1 UNL1     0.0309
     119 H         -1.882322   -6.488131   2.739577 H        1 UNL1     0.0309
     120 H         -1.170598   -4.991341   2.178128 H        1 UNL1     0.0309
     121 H         -4.741882   -1.588404   4.946545 H        1 UNL1     0.0524
     122 H         -3.38606   -2.062834   5.977817 H        1 UNL1     0.0524
     123 H         -4.110678   -0.445977   6.163414 H        1 UNL1     0.0524
@<TRIPOS>BOND
     1     1     2    1
     2     1    42    1
     3     2     3    2
     4     3     4    1
     5     4     5    2
     6     5     7    1
     7     6    75    1
     8     6    76    1
     9     6    77    1
    10     7     9   am
    11     9    10    1
    12    10    11    2
    13    10    43    1
    14    11    14    1
    15    11    15    1
    16    12    13   ar
    17    12    27   ar
    18    12    43    1
    19    13    14    1
    20    13    30   ar
    21    14    17    2
    22    15    16    1
    23    16    17    1
    24    16    18    1
    25    16    22    1
    26    18    19    1
    27    19    20    1
    28    20    21    1
    29    21    22    1
    30    23    24    1
    31    23    88    1
    32    23    89    1
    33    24    25    1
    34    24    26    1
    35    24    90    1
    36    25    91    1
    37    25    92    1
    38    25    93    1
    39    26    94    1
    40    26    95    1
    41    26    96    1
    42    27    28   ar
    43    28    29   ar
    44    29    30   ar
    45    29    31    1
    46    30    33    1
    47    31    32    1
    48    32    33    1
    49    32    35    1
    50    34    97    1
    51    34    98    1
    52    34    99    1
    53    35    61    1
    54    36    37    1
    55    36    60    1
    56    37    38    1
    57    38    39    1
    58    39    40    1
    59    40    41    1
    60    41    42    1
    61    45   100    1
    62    47   101    1
    63    47   102    1
    64    47   103    1
    65    48   104    1
    66    49   105    1
    67    49   106    1
    68    49   107    1
    69    50   108    1
    70    51    59    1
    71    52   109    1
    72    52   110    1
    73    52   111    1
    74    53    54    1
    75    54    55    2
    76    54    56    1
    77    56   112    1
    78    56   113    1
    79    56   114    1
    80    57   115    1
    81    57   116    1
    82    57   117    1
    83    58   118    1
    84    58   119    1
    85    58   120    1
    86    59   121    1
    87    59   122    1
    88    59   123    1
    89    60    61    2
    90     1    47    1
    91     1    62    1
    92     2    63    1
    93     3    64    1
    94     4    65    1
    95     5     6    1
    96     7     8    2
    97     9    78    1
    98    15    79    1
    99    18    80    1
   100    18    81    1
   101    19    82    1
   102    19    83    1
   103    20    23    1
   104    21    84    1
   105    21    85    1
   106    22    86    1
   107    22    87    1
   108    27    45    1
   109    28    34    1
   110    32    58    1
   111    33    46    2
   112    36    51    1
   113    36    66    1
   114    37    52    1
   115    37    67    1
   116    38    53    1
   117    38    68    1
   118    42    48    1
   119    42    72    1
   120    43    44    2
   121    60    73    1
   122    61    74    1
   123    39    69    1
   124    39    57    1
   125    40    70    1
   126    40    50    1
   127    41    71    1
   128    41    49    1
