@<TRIPOS>MOLECULE
*****
 123 128 0 0 0
SMALL
GASTEIGER

@<TRIPOS>ATOM
     1 C         -0.209496   1.866219   3.792912 C.3        1 UNL1     0.0009
     2 C         -1.682173   1.989016   4.912367 C.2        1 UNL1     -0.0787
     3 C         -2.760087   2.764344   5.48944 C.2        1 UNL1     -0.0649
     4 C         -4.011106   2.221439   6.492715 C.2        1 UNL1     -0.0542
     5 C         -5.30725   2.505162   6.989295 C.2        1 UNL1     0.0115
     6 C         -6.40845   3.597489   7.07591 C.3        1 UNL1     -0.0348
     7 C         -6.167929   1.315821   7.638671 C.2        1 UNL1     0.2441
     8 O         -6.297343   1.170773   8.846453 O.2        1 UNL1     -0.2702
     9 N         -6.974803   0.608777   6.730269 N.am        1 UNL1     -0.2772
     10 C         -6.268269   -0.429206   6.167489 C.2        1 UNL1     0.1049
     11 C         -5.497476   -0.119437   5.140774 C.2        1 UNL1     0.0801
     12 C         -4.791298   -2.364696   6.741747 C.ar        1 UNL1     0.0753
     13 C         -3.884301   -1.864775   5.753799 C.ar        1 UNL1     0.0305
     14 C         -4.269787   -0.800309   4.830021 C.2        1 UNL1     0.0924
     15 N         -5.441398   1.008545   4.412048 N.pl3        1 UNL1     -0.3170
     16 C         -4.556106   0.77152   3.302845 C.3        1 UNL1     0.1275
     17 N         -3.602716   -0.28756   3.799957 N.2        1 UNL1     -0.2557
     18 C         -5.37991   0.115284   2.199032 C.3        1 UNL1     0.0016
     19 C         -6.563798   1.013092   1.876637 C.3        1 UNL1     0.0026
     20 N         -6.063075   2.313708   1.453906 N.3        1 UNL1     -0.3018
     21 C         -5.207896   2.996838   2.426722 C.3        1 UNL1     0.0026
     22 C         -4.022876   2.07919   2.732569 C.3        1 UNL1     0.0016
     23 C         -7.084923   3.139798   0.842313 C.3        1 UNL1     0.0012
     24 C         -7.480132   2.578103   -0.532483 C.3        1 UNL1     -0.0339
     25 C         -7.838185   3.702886   -1.517733 C.3        1 UNL1     -0.0615
     26 C         -6.369444   1.694243   -1.072801 C.3        1 UNL1     -0.0615
     27 C         -4.460473   -3.459125   7.537296 C.ar        1 UNL1     0.1347
     28 C         -3.273073   -4.15764   7.409988 C.ar        1 UNL1     0.0342
     29 C         -2.375346   -3.617581   6.464691 C.ar        1 UNL1     0.1435
     30 C         -2.678328   -2.50002   5.685923 C.ar        1 UNL1     0.0774
     31 O         -1.223569   -4.247777   6.146463 O.3        1 UNL1     -0.4436
     32 C         -0.844302   -3.691723   4.878459 C.3        1 UNL1     0.3143
     33 C         -1.531453   -2.342596   4.816059 C.2        1 UNL1     0.2504
     34 C         -2.956513   -5.481966   8.047208 C.3        1 UNL1     -0.0327
     35 O         0.565448   -3.439975   4.928255 O.2        1 UNL1     -0.4528
     36 C         1.817611   -3.823984   1.365571 C.3        1 UNL1     0.0854
     37 C         1.358983   -3.065343   0.0611 C.3        1 UNL1     0.0236
     38 C         2.537227   -2.33616   -0.746227 C.3        1 UNL1     0.1131
     39 C         3.531912   -1.371635   0.017031 C.3        1 UNL1     0.0200
     40 C         2.955208   -0.275123   1.133952 C.3        1 UNL1     0.0661
     41 C         1.671855   0.807582   0.892363 C.3        1 UNL1     0.0091
     42 C         0.435907   1.470878   2.07468 C.3        1 UNL1     0.0661
     43 C         -6.132164   -1.734963   6.82993 C.2        1 UNL1     0.2131
     44 O         -7.102761   -2.284016   7.31903 O.2        1 UNL1     -0.2851
     45 O         -5.380696   -3.854037   8.506147 O.3        1 UNL1     -0.5056
     46 O         -1.195618   -1.353505   4.203876 O.2        1 UNL1     -0.2836
     47 C         1.01703   2.567246   4.436477 C.3        1 UNL1     -0.0566
     48 O         0.599168   2.876957   1.632632 O.3        1 UNL1     -0.3909
     49 C         0.916523   0.399049   -0.352655 C.3        1 UNL1     -0.0577
     50 O         2.852067   -0.869145   2.412319 O.3        1 UNL1     -0.3910
     51 O         3.158084   -3.625669   1.754462 O.3        1 UNL1     -0.3753
     52 C         -0.055622   -2.420843   0.229809 C.3        1 UNL1     -0.0564
     53 O         2.149865   -1.930712   -2.138308 O.3        1 UNL1     -0.4608
     54 C         2.930212   -2.077014   -3.255261 C.2        1 UNL1     0.3042
     55 O         3.574852   -1.204329   -3.835518 O.2        1 UNL1     -0.2512
     56 C         3.014078   -3.493312   -3.749001 C.3        1 UNL1     0.0332
     57 C         4.825387   -2.226109   0.410693 C.3        1 UNL1     -0.0567
     58 C         -1.454689   -4.612977   3.796678 C.3        1 UNL1     0.0210
     59 C         4.014202   -4.748468   1.548911 C.3        1 UNL1     0.0372
     60 C         0.979423   -3.569169   2.568763 C.2        1 UNL1     -0.0208
     61 C         1.331826   -3.309032   3.82848 C.2        1 UNL1     0.0882
     62 H         -0.130045   0.802053   4.045796 H        1 UNL1     0.0365
     63 H         -1.680277   0.993528   5.361222 H        1 UNL1     0.0576
     64 H         -2.956598   3.792439   5.17717 H        1 UNL1     0.0615
     65 H         -3.680023   1.228181   6.807843 H        1 UNL1     0.0622
     66 H         1.685772   -4.888642   1.126473 H        1 UNL1     0.0645
     67 H         1.083048   -3.874868   -0.636817 H        1 UNL1     0.0362
     68 H         3.139244   -3.214129   -1.025993 H        1 UNL1     0.0741
     69 H         4.024452   -0.736051   -0.706741 H        1 UNL1     0.0359
     70 H         3.831167   0.397036   1.211139 H        1 UNL1     0.0600
     71 H         2.230754   1.691355   0.526941 H        1 UNL1     0.0348
     72 H         1.27121   1.099271   2.68582 H        1 UNL1     0.0602
     73 H         -0.039399   -3.746975   2.328693 H        1 UNL1     0.0628
     74 H         2.344499   -3.058643   4.146343 H        1 UNL1     0.1022
     75 H         -5.966786   4.575845   7.383788 H        1 UNL1     0.0279
     76 H         -6.914557   3.85087   6.147082 H        1 UNL1     0.0279
     77 H         -7.123889   3.416379   7.891414 H        1 UNL1     0.0279
     78 H         -7.263301   1.227731   5.975457 H        1 UNL1     0.1553
     79 H         -6.17638   1.691182   4.384847 H        1 UNL1     0.1484
     80 H         -4.742258   -0.037802   1.319981 H        1 UNL1     0.0317
     81 H         -5.73018   -0.875265   2.508506 H        1 UNL1     0.0317
     82 H         -7.245805   1.111116   2.734057 H        1 UNL1     0.0428
     83 H         -7.13862   0.525479   1.088687 H        1 UNL1     0.0428
     84 H         -4.780973   3.933188   2.054169 H        1 UNL1     0.0428
     85 H         -5.767631   3.29695   3.323354 H        1 UNL1     0.0428
     86 H         -3.355021   2.661426   3.339989 H        1 UNL1     0.0317
     87 H         -3.443078   1.898848   1.81911 H        1 UNL1     0.0317
     88 H         -7.969329   3.126506   1.492655 H        1 UNL1     0.0429
     89 H         -6.758835   4.184949   0.764205 H        1 UNL1     0.0429
     90 H         -8.352997   1.924813   -0.416161 H        1 UNL1     0.0308
     91 H         -7.098958   4.508922   -1.486871 H        1 UNL1     0.0233
     92 H         -7.905058   3.316443   -2.537438 H        1 UNL1     0.0233
     93 H         -8.812411   4.156128   -1.297986 H        1 UNL1     0.0233
     94 H         -6.44983   1.61002   -2.161966 H        1 UNL1     0.0233
     95 H         -5.395486   2.133554   -0.83962 H        1 UNL1     0.0233
     96 H         -6.41507   0.689171   -0.644177 H        1 UNL1     0.0233
     97 H         -2.712928   -6.241061   7.309867 H        1 UNL1     0.0280
     98 H         -2.087613   -5.422447   8.715584 H        1 UNL1     0.0280
     99 H         -3.827071   -5.830064   8.626907 H        1 UNL1     0.0280
     100 H         -5.702899   -3.155314   9.04799 H        1 UNL1     0.2922
     101 H         1.709435   1.818063   4.819827 H        1 UNL1     0.0236
     102 H         0.743024   3.297947   5.196727 H        1 UNL1     0.0236
     103 H         1.603277   3.137674   3.696802 H        1 UNL1     0.0236
     104 H         1.182686   3.322947   2.277279 H        1 UNL1     0.2098
     105 H         0.6846   1.219734   -1.02682 H        1 UNL1     0.0234
     106 H         1.361835   -0.428737   -0.904375 H        1 UNL1     0.0234
     107 H         0.0   -0.0   0.0 H        1 UNL1     0.0234
     108 H         2.307266   -0.276008   2.964721 H        1 UNL1     0.2098
     109 H         -0.832162   -3.170324   0.437119 H        1 UNL1     0.0234
     110 H         -0.084427   -1.641099   0.998518 H        1 UNL1     0.0234
     111 H         -0.377034   -1.904982   -0.684809 H        1 UNL1     0.0234
     112 H         3.666072   -3.543592   -4.626338 H        1 UNL1     0.0342
     113 H         3.350547   -4.178516   -2.972387 H        1 UNL1     0.0342
     114 H         2.008186   -3.808927   -4.058408 H        1 UNL1     0.0342
     115 H         5.739012   -1.616079   0.392186 H        1 UNL1     0.0234
     116 H         4.764394   -2.696327   1.394168 H        1 UNL1     0.0234
     117 H         5.076646   -3.008562   -0.325906 H        1 UNL1     0.0234
     118 H         -0.68153   -5.187126   3.256693 H        1 UNL1     0.0309
     119 H         -2.202731   -5.305941   4.194717 H        1 UNL1     0.0309
     120 H         -1.954924   -4.051623   2.999965 H        1 UNL1     0.0309
     121 H         4.83428   -4.672759   2.262421 H        1 UNL1     0.0524
     122 H         3.500014   -5.706168   1.734541 H        1 UNL1     0.0524
     123 H         4.399618   -4.746281   0.533262 H        1 UNL1     0.0524
@<TRIPOS>BOND
     1     1     2    1
     2     1    42    1
     3     2     3    2
     4     3     4    1
     5     4     5    2
     6     5     7    1
     7     6    75    1
     8     6    76    1
     9     6    77    1
    10     7     9   am
    11     9    10    1
    12    10    11    2
    13    10    43    1
    14    11    14    1
    15    11    15    1
    16    12    13   ar
    17    12    27   ar
    18    12    43    1
    19    13    14    1
    20    13    30   ar
    21    14    17    2
    22    15    16    1
    23    16    17    1
    24    16    18    1
    25    16    22    1
    26    18    19    1
    27    19    20    1
    28    20    21    1
    29    21    22    1
    30    23    24    1
    31    23    88    1
    32    23    89    1
    33    24    25    1
    34    24    26    1
    35    24    90    1
    36    25    91    1
    37    25    92    1
    38    25    93    1
    39    26    94    1
    40    26    95    1
    41    26    96    1
    42    27    28   ar
    43    28    29   ar
    44    29    30   ar
    45    29    31    1
    46    30    33    1
    47    31    32    1
    48    32    33    1
    49    32    35    1
    50    34    97    1
    51    34    98    1
    52    34    99    1
    53    35    61    1
    54    36    37    1
    55    36    60    1
    56    37    38    1
    57    38    39    1
    58    39    40    1
    59    40    41    1
    60    41    42    1
    61    45   100    1
    62    47   101    1
    63    47   102    1
    64    47   103    1
    65    48   104    1
    66    49   105    1
    67    49   106    1
    68    49   107    1
    69    50   108    1
    70    51    59    1
    71    52   109    1
    72    52   110    1
    73    52   111    1
    74    53    54    1
    75    54    55    2
    76    54    56    1
    77    56   112    1
    78    56   113    1
    79    56   114    1
    80    57   115    1
    81    57   116    1
    82    57   117    1
    83    58   118    1
    84    58   119    1
    85    58   120    1
    86    59   121    1
    87    59   122    1
    88    59   123    1
    89    60    61    2
    90     1    47    1
    91     1    62    1
    92     2    63    1
    93     3    64    1
    94     4    65    1
    95     5     6    1
    96     7     8    2
    97     9    78    1
    98    15    79    1
    99    18    80    1
   100    18    81    1
   101    19    82    1
   102    19    83    1
   103    20    23    1
   104    21    84    1
   105    21    85    1
   106    22    86    1
   107    22    87    1
   108    27    45    1
   109    28    34    1
   110    32    58    1
   111    33    46    2
   112    36    51    1
   113    36    66    1
   114    37    52    1
   115    37    67    1
   116    38    53    1
   117    38    68    1
   118    42    48    1
   119    42    72    1
   120    43    44    2
   121    60    73    1
   122    61    74    1
   123    39    69    1
   124    39    57    1
   125    40    70    1
   126    40    50    1
   127    41    71    1
   128    41    49    1
