@<TRIPOS>MOLECULE
*****
 123 128 0 0 0
SMALL
GASTEIGER

@<TRIPOS>ATOM
     1 C         5.168406   1.743021   0.498721 C.3        1 UNL1     0.0009
     2 C         6.607194   2.54758   -0.34958 C.2        1 UNL1     -0.0787
     3 C         7.889905   2.448005   -1.013494 C.2        1 UNL1     -0.0649
     4 C         8.769796   3.682195   -1.767766 C.2        1 UNL1     -0.0542
     5 C         9.791477   3.973758   -2.704909 C.2        1 UNL1     0.0115
     6 C         10.920206   3.347107   -3.568971 C.3        1 UNL1     -0.0348
     7 C         9.889324   5.45694   -3.311196 C.2        1 UNL1     0.2441
     8 O         10.713583   6.277651   -2.932308 O.2        1 UNL1     -0.2702
     9 N         9.140994   5.664805   -4.482923 N.am        1 UNL1     -0.2772
     10 C         7.858265   6.052894   -4.170967 C.2        1 UNL1     0.1049
     11 C         7.010988   5.082406   -3.880287 C.2        1 UNL1     0.0801
     12 C         6.55966   7.660911   -2.761981 C.ar        1 UNL1     0.0753
     13 C         5.798716   6.533816   -2.315632 C.ar        1 UNL1     0.0305
     14 C         5.915111   5.22802   -2.960924 C.2        1 UNL1     0.0924
     15 N         7.132356   3.753301   -4.039275 N.pl3        1 UNL1     -0.3170
     16 C         5.861387   3.155526   -3.726934 C.3        1 UNL1     0.1275
     17 N         5.22466   4.111414   -2.747863 N.2        1 UNL1     -0.2557
     18 C         5.010398   3.215612   -4.991809 C.3        1 UNL1     0.0016
     19 C         5.766118   2.530742   -6.119386 C.3        1 UNL1     0.0026
     20 N         6.034181   1.15232   -5.73322 N.3        1 UNL1     -0.3018
     21 C         6.795601   0.991011   -4.492822 C.3        1 UNL1     0.0026
     22 C         6.016035   1.682336   -3.372893 C.3        1 UNL1     0.0016
     23 C         6.47935   0.332348   -6.842326 C.3        1 UNL1     0.0012
     24 C         5.323903   0.080572   -7.823809 C.3        1 UNL1     -0.0339
     25 C         5.347848   1.082747   -8.989626 C.3        1 UNL1     -0.0615
     26 C         5.364915   -1.354525   -8.319383 C.3        1 UNL1     -0.0615
     27 C         6.355644   8.928803   -2.222588 C.ar        1 UNL1     0.1347
     28 C         5.395526   9.199366   -1.263933 C.ar        1 UNL1     0.0342
     29 C         4.692052   8.065673   -0.804556 C.ar        1 UNL1     0.1435
     30 C         4.910786   6.783429   -1.309755 C.ar        1 UNL1     0.0774
     31 O         3.64998   8.180353   0.047466 O.3        1 UNL1     -0.4436
     32 C         2.927134   6.948343   -0.09578 C.3        1 UNL1     0.3143
     33 C         3.940079   5.954139   -0.626547 C.2        1 UNL1     0.2504
     34 C         4.949584   10.565944   -0.823819 C.3        1 UNL1     -0.0327
     35 O         2.564152   6.511979   1.219926 O.2        1 UNL1     -0.4528
     36 C         -0.680476   4.583419   0.818514 C.3        1 UNL1     0.0854
     37 C         -0.985916   3.323218   -0.079329 C.3        1 UNL1     0.0236
     38 C         -1.588984   2.062805   0.707698 C.3        1 UNL1     0.1131
     39 C         -0.865654   1.531004   2.0101 C.3        1 UNL1     0.0200
     40 C         0.795315   1.383609   2.053604 C.3        1 UNL1     0.0661
     41 C         1.755477   0.613767   0.88611 C.3        1 UNL1     0.0091
     42 C         3.46426   0.97445   0.324531 C.3        1 UNL1     0.0661
     43 C         7.51105   7.452203   -3.881605 C.2        1 UNL1     0.2131
     44 O         7.912945   8.349867   -4.59953 O.2        1 UNL1     -0.2851
     45 O         7.169707   9.963026   -2.679885 O.3        1 UNL1     -0.5056
     46 O         3.954545   4.750581   -0.495802 O.2        1 UNL1     -0.2836
     47 C         5.562264   1.313043   1.937462 C.3        1 UNL1     -0.0566
     48 O         3.911137   -0.437157   0.406887 O.3        1 UNL1     -0.3909
     49 C         0.922778   0.382156   -0.355044 C.3        1 UNL1     -0.0577
     50 O         1.396315   2.600787   2.447306 O.3        1 UNL1     -0.3910
     51 O         -0.806734   4.393826   2.209753 O.3        1 UNL1     -0.3753
     52 C         0.059981   3.161631   -1.230389 C.3        1 UNL1     -0.0564
     53 O         -2.191477   1.024529   -0.19303 O.3        1 UNL1     -0.4608
     54 C         -2.415713   -0.285226   0.141915 C.2        1 UNL1     0.3042
     55 O         -1.844085   -1.278839   -0.305088 O.2        1 UNL1     -0.2512
     56 C         -3.446711   -0.462224   1.220076 C.3        1 UNL1     0.0332
     57 C         -1.58771   2.200751   3.270357 C.3        1 UNL1     -0.0567
     58 C         1.853739   7.194673   -1.181447 C.3        1 UNL1     0.0210
     59 C         -1.150582   5.566819   2.94577 C.3        1 UNL1     0.0372
     60 C         0.649543   5.21103   0.589791 C.2        1 UNL1     -0.0208
     61 C         1.56174   5.645213   1.460495 C.2        1 UNL1     0.0882
     62 H         4.693461   2.727721   0.585357 H        1 UNL1     0.0365
     63 H         6.341974   3.601672   -0.244609 H        1 UNL1     0.0576
     64 H         8.346791   1.480654   -1.233935 H        1 UNL1     0.0615
     65 H         8.283248   4.598121   -1.421597 H        1 UNL1     0.0622
     66 H         -1.423857   5.330788   0.507274 H        1 UNL1     0.0645
     67 H         -1.85026   3.63357   -0.691825 H        1 UNL1     0.0362
     68 H         -2.536059   2.500725   1.058123 H        1 UNL1     0.0741
     69 H         -1.198578   0.520269   2.205 H        1 UNL1     0.0359
     70 H         0.905119   0.723125   2.934946 H        1 UNL1     0.0600
     71 H         1.797322   -0.407461   1.313076 H        1 UNL1     0.0348
     72 H         3.357549   1.46274   1.304072 H        1 UNL1     0.0602
     73 H         0.769111   5.408182   -0.446589 H        1 UNL1     0.0628
     74 H         1.54246   5.434534   2.530299 H        1 UNL1     0.1022
     75 H         10.963239   2.241775   -3.415929 H        1 UNL1     0.0279
     76 H         10.808177   3.430058   -4.647691 H        1 UNL1     0.0279
     77 H         11.925162   3.650679   -3.240933 H        1 UNL1     0.0279
     78 H         9.078757   4.794942   -5.007846 H        1 UNL1     0.1553
     79 H         7.798012   3.324587   -4.655749 H        1 UNL1     0.1484
     80 H         4.048299   2.725745   -4.799036 H        1 UNL1     0.0317
     81 H         4.785327   4.252626   -5.263095 H        1 UNL1     0.0317
     82 H         6.69772   3.061012   -6.366052 H        1 UNL1     0.0428
     83 H         5.142277   2.58661   -7.011995 H        1 UNL1     0.0428
     84 H         6.914324   -0.052084   -4.183518 H        1 UNL1     0.0428
     85 H         7.826248   1.357897   -4.595187 H        1 UNL1     0.0428
     86 H         6.530907   1.431369   -2.464097 H        1 UNL1     0.0317
     87 H         5.035883   1.205789   -3.249189 H        1 UNL1     0.0317
     88 H         7.274568   0.874644   -7.370377 H        1 UNL1     0.0429
     89 H         6.913227   -0.612571   -6.490683 H        1 UNL1     0.0429
     90 H         4.371089   0.186592   -7.291719 H        1 UNL1     0.0308
     91 H         6.29664   1.038514   -9.53271 H        1 UNL1     0.0233
     92 H         4.527576   0.887002   -9.684209 H        1 UNL1     0.0233
     93 H         5.222332   2.118774   -8.652389 H        1 UNL1     0.0233
     94 H         4.668515   -1.485724   -9.154637 H        1 UNL1     0.0233
     95 H         6.369467   -1.597889   -8.67661 H        1 UNL1     0.0233
     96 H         5.091677   -2.057978   -7.527888 H        1 UNL1     0.0233
     97 H         4.155155   10.51703   -0.085089 H        1 UNL1     0.0280
     98 H         5.762314   11.135068   -0.353899 H        1 UNL1     0.0280
     99 H         4.577752   11.130917   -1.694245 H        1 UNL1     0.0280
     100 H         6.703962   10.713904   -3.003746 H        1 UNL1     0.2922
     101 H         4.698263   0.880353   2.441383 H        1 UNL1     0.0236
     102 H         6.013132   2.11787   2.517077 H        1 UNL1     0.0236
     103 H         6.317619   0.509531   1.937398 H        1 UNL1     0.0236
     104 H         4.329309   -0.563635   1.281019 H        1 UNL1     0.2098
     105 H         0.711935   1.281238   -0.928637 H        1 UNL1     0.0234
     106 H         1.292205   -0.406261   -1.010673 H        1 UNL1     0.0234
     107 H         0.0   -0.0   0.0 H        1 UNL1     0.0234
     108 H         1.197074   3.260011   1.75485 H        1 UNL1     0.2098
     109 H         1.084157   3.047005   -0.848765 H        1 UNL1     0.0234
     110 H         -0.172432   2.334806   -1.910159 H        1 UNL1     0.0234
     111 H         0.083068   4.044435   -1.883129 H        1 UNL1     0.0234
     112 H         -3.573562   -1.526041   1.44267 H        1 UNL1     0.0342
     113 H         -3.198523   0.098373   2.120063 H        1 UNL1     0.0342
     114 H         -4.405691   -0.080199   0.843808 H        1 UNL1     0.0342
     115 H         -2.652241   1.933507   3.320779 H        1 UNL1     0.0234
     116 H         -1.137799   1.939683   4.230291 H        1 UNL1     0.0234
     117 H         -1.646869   3.301114   3.209996 H        1 UNL1     0.0234
     118 H         0.952632   7.682572   -0.77039 H        1 UNL1     0.0309
     119 H         2.224943   7.782263   -2.027111 H        1 UNL1     0.0309
     120 H         1.464725   6.263156   -1.606948 H        1 UNL1     0.0309
     121 H         -0.346844   6.289656   2.808404 H        1 UNL1     0.0524
     122 H         -2.081372   6.031968   2.580664 H        1 UNL1     0.0524
     123 H         -1.264969   5.329226   3.999601 H        1 UNL1     0.0524
@<TRIPOS>BOND
     1     1     2    1
     2     1    42    1
     3     2     3    2
     4     3     4    1
     5     4     5    2
     6     5     7    1
     7     6    75    1
     8     6    76    1
     9     6    77    1
    10     7     9   am
    11     9    10    1
    12    10    11    2
    13    10    43    1
    14    11    14    1
    15    11    15    1
    16    12    13   ar
    17    12    27   ar
    18    12    43    1
    19    13    14    1
    20    13    30   ar
    21    14    17    2
    22    15    16    1
    23    16    17    1
    24    16    18    1
    25    16    22    1
    26    18    19    1
    27    19    20    1
    28    20    21    1
    29    21    22    1
    30    23    24    1
    31    23    88    1
    32    23    89    1
    33    24    25    1
    34    24    26    1
    35    24    90    1
    36    25    91    1
    37    25    92    1
    38    25    93    1
    39    26    94    1
    40    26    95    1
    41    26    96    1
    42    27    28   ar
    43    28    29   ar
    44    29    30   ar
    45    29    31    1
    46    30    33    1
    47    31    32    1
    48    32    33    1
    49    32    35    1
    50    34    97    1
    51    34    98    1
    52    34    99    1
    53    35    61    1
    54    36    37    1
    55    36    60    1
    56    37    38    1
    57    38    39    1
    58    39    40    1
    59    40    41    1
    60    41    42    1
    61    45   100    1
    62    47   101    1
    63    47   102    1
    64    47   103    1
    65    48   104    1
    66    49   105    1
    67    49   106    1
    68    49   107    1
    69    50   108    1
    70    51    59    1
    71    52   109    1
    72    52   110    1
    73    52   111    1
    74    53    54    1
    75    54    55    2
    76    54    56    1
    77    56   112    1
    78    56   113    1
    79    56   114    1
    80    57   115    1
    81    57   116    1
    82    57   117    1
    83    58   118    1
    84    58   119    1
    85    58   120    1
    86    59   121    1
    87    59   122    1
    88    59   123    1
    89    60    61    2
    90     1    47    1
    91     1    62    1
    92     2    63    1
    93     3    64    1
    94     4    65    1
    95     5     6    1
    96     7     8    2
    97     9    78    1
    98    15    79    1
    99    18    80    1
   100    18    81    1
   101    19    82    1
   102    19    83    1
   103    20    23    1
   104    21    84    1
   105    21    85    1
   106    22    86    1
   107    22    87    1
   108    27    45    1
   109    28    34    1
   110    32    58    1
   111    33    46    2
   112    36    51    1
   113    36    66    1
   114    37    52    1
   115    37    67    1
   116    38    53    1
   117    38    68    1
   118    42    48    1
   119    42    72    1
   120    43    44    2
   121    60    73    1
   122    61    74    1
   123    39    69    1
   124    39    57    1
   125    40    70    1
   126    40    50    1
   127    41    71    1
   128    41    49    1
