@<TRIPOS>MOLECULE
*****
 123 128 0 0 0
SMALL
GASTEIGER

@<TRIPOS>ATOM
     1 C         3.785166   -1.388279   1.678445 C.3        1 UNL1     0.0009
     2 C         4.217086   -2.791189   2.810843 C.2        1 UNL1     -0.0787
     3 C         4.338554   -3.335092   4.147054 C.2        1 UNL1     -0.0649
     4 C         4.728032   -4.921066   4.59354 C.2        1 UNL1     -0.0542
     5 C         4.668513   -5.882687   5.632203 C.2        1 UNL1     0.0115
     6 C         4.344787   -6.087864   7.137669 C.3        1 UNL1     -0.0348
     7 C         4.867329   -7.433336   5.267584 C.2        1 UNL1     0.2441
     8 O         5.912878   -8.035572   5.469243 O.2        1 UNL1     -0.2702
     9 N         3.683368   -8.118898   4.944485 N.am        1 UNL1     -0.2772
     10 C         3.414493   -8.005476   3.599805 C.2        1 UNL1     0.1049
     11 C         2.800252   -6.899618   3.220319 C.2        1 UNL1     0.0801
     12 C         4.461194   -8.245245   1.340544 C.ar        1 UNL1     0.0753
     13 C         3.944884   -6.942424   1.04953 C.ar        1 UNL1     0.0305
     14 C         2.986389   -6.284033   1.934323 C.2        1 UNL1     0.0924
     15 N         2.201071   -5.948125   3.956641 N.pl3        1 UNL1     -0.3170
     16 C         1.536462   -5.046817   3.053207 C.3        1 UNL1     0.1275
     17 N         2.335045   -5.135338   1.775649 N.2        1 UNL1     -0.2557
     18 C         0.169086   -5.646891   2.740324 C.3        1 UNL1     0.0016
     19 C         -0.569385   -5.882605   4.048257 C.3        1 UNL1     0.0026
     20 N         -0.702384   -4.611215   4.746043 N.3        1 UNL1     -0.3018
     21 C         0.55904   -3.926597   5.036693 C.3        1 UNL1     0.0026
     22 C         1.282075   -3.695781   3.708597 C.3        1 UNL1     0.0016
     23 C         -1.642344   -4.668241   5.8478 C.3        1 UNL1     0.0012
     24 C         -1.72507   -6.09537   6.411904 C.3        1 UNL1     -0.0339
     25 C         -1.329805   -7.141104   5.356317 C.3        1 UNL1     -0.0615
     26 C         -0.869875   -6.211752   7.661655 C.3        1 UNL1     -0.0615
     27 C         5.279247   -8.916313   0.434687 C.ar        1 UNL1     0.1347
     28 C         5.616013   -8.404812   -0.80588 C.ar        1 UNL1     0.0342
     29 C         5.136487   -7.100426   -1.050413 C.ar        1 UNL1     0.1435
     30 C         4.345932   -6.401337   -0.137441 C.ar        1 UNL1     0.0774
     31 O         5.287062   -6.508579   -2.255423 O.3        1 UNL1     -0.4436
     32 C         4.30358   -5.462929   -2.271311 C.3        1 UNL1     0.3143
     33 C         4.021197   -5.162498   -0.813157 C.2        1 UNL1     0.2504
     34 C         6.274667   -9.164451   -1.923566 C.3        1 UNL1     -0.0327
     35 O         4.929153   -4.298123   -2.823703 O.2        1 UNL1     -0.4528
     36 C         2.165468   -2.353524   -4.552481 C.3        1 UNL1     0.0854
     37 C         0.817624   -1.793214   -3.955077 C.3        1 UNL1     0.0236
     38 C         0.585008   -0.22114   -4.170062 C.3        1 UNL1     0.1131
     39 C         1.72236   0.802807   -3.769773 C.3        1 UNL1     0.0200
     40 C         2.552354   0.624768   -2.333859 C.3        1 UNL1     0.0661
     41 C         1.85469   0.395052   -0.804772 C.3        1 UNL1     0.0091
     42 C         2.460876   -0.541974   0.651223 C.3        1 UNL1     0.0661
     43 C         4.02392   -8.895777   2.600648 C.2        1 UNL1     0.2131
     44 O         4.056789   -10.099209   2.783424 O.2        1 UNL1     -0.2851
     45 O         5.776852   -10.161177   0.814346 O.3        1 UNL1     -0.5056
     46 O         3.636252   -4.126884   -0.318006 O.2        1 UNL1     -0.2836
     47 C         4.896665   -0.305082   1.713591 C.3        1 UNL1     -0.0566
     48 O         2.177831   0.549431   1.614466 O.3        1 UNL1     -0.3909
     49 C         0.395649   0.038605   -0.982645 C.3        1 UNL1     -0.0577
     50 O         3.655522   -0.243636   -2.497008 O.3        1 UNL1     -0.3910
     51 O         3.070766   -1.389392   -5.040657 O.3        1 UNL1     -0.3753
     52 C         0.424675   -2.517555   -2.626217 C.3        1 UNL1     -0.0564
     53 O         -0.827825   0.217084   -3.916709 O.3        1 UNL1     -0.4608
     54 C         -1.205242   1.439759   -3.426247 C.2        1 UNL1     0.3042
     55 O         -0.516152   2.455534   -3.341429 O.2        1 UNL1     -0.2512
     56 C         -2.647901   1.502343   -3.012082 C.3        1 UNL1     0.0332
     57 C         2.571966   1.119272   -5.08742 C.3        1 UNL1     -0.0567
     58 C         3.032333   -6.067799   -2.911307 C.3        1 UNL1     0.0210
     59 C         4.050215   -0.955435   -4.098199 C.3        1 UNL1     0.0372
     60 C         2.935703   -3.242791   -3.640832 C.2        1 UNL1     -0.0208
     61 C         4.2394   -3.273791   -3.361264 C.2        1 UNL1     0.0882
     62 H         4.006881   -2.036499   0.822078 H        1 UNL1     0.0365
     63 H         4.589165   -3.525132   2.092961 H        1 UNL1     0.0576
     64 H         4.01382   -2.773055   5.025559 H        1 UNL1     0.0615
     65 H         5.111171   -5.364972   3.670699 H        1 UNL1     0.0622
     66 H         1.85217   -2.985048   -5.395729 H        1 UNL1     0.0645
     67 H         0.03676   -2.221806   -4.607088 H        1 UNL1     0.0362
     68 H         0.538682   -0.190686   -5.269357 H        1 UNL1     0.0741
     69 H         1.285064   1.787339   -3.670382 H        1 UNL1     0.0359
     70 H         3.003419   1.631875   -2.248202 H        1 UNL1     0.0600
     71 H         1.781337   1.447029   -0.465771 H        1 UNL1     0.0348
     72 H         3.342679   -0.357918   0.02046 H        1 UNL1     0.0602
     73 H         2.297293   -4.010738   -3.280361 H        1 UNL1     0.0628
     74 H         4.949232   -2.495446   -3.643321 H        1 UNL1     0.1022
     75 H         4.70564   -7.086406   7.483695 H        1 UNL1     0.0279
     76 H         4.830034   -5.40882   7.835167 H        1 UNL1     0.0279
     77 H         3.265445   -6.167589   7.333539 H        1 UNL1     0.0279
     78 H         2.901123   -7.707142   5.449091 H        1 UNL1     0.1553
     79 H         1.905519   -6.082265   4.906161 H        1 UNL1     0.1484
     80 H         -0.382135   -4.959407   2.087416 H        1 UNL1     0.0317
     81 H         0.271549   -6.587972   2.189398 H        1 UNL1     0.0317
     82 H         -0.058017   -6.627092   4.676074 H        1 UNL1     0.0428
     83 H         -1.540867   -6.312359   3.802115 H        1 UNL1     0.0428
     84 H         0.427835   -2.938576   5.488811 H        1 UNL1     0.0428
     85 H         1.163573   -4.477582   5.770363 H        1 UNL1     0.0428
     86 H         2.129927   -3.07949   3.943796 H        1 UNL1     0.0317
     87 H         0.674951   -3.054596   3.057921 H        1 UNL1     0.0317
     88 H         -1.280889   -3.999687   6.640063 H        1 UNL1     0.0429
     89 H         -2.632746   -4.303598   5.546283 H        1 UNL1     0.0429
     90 H         -2.754064   -6.295431   6.733402 H        1 UNL1     0.0308
     91 H         -1.910267   -7.017457   4.437145 H        1 UNL1     0.0233
     92 H         -0.26542   -7.068974   5.120752 H        1 UNL1     0.0233
     93 H         -1.497421   -8.168125   5.702683 H        1 UNL1     0.0233
     94 H         -0.989276   -7.204018   8.109971 H        1 UNL1     0.0233
     95 H         0.185425   -6.082258   7.405655 H        1 UNL1     0.0233
     96 H         -1.147216   -5.46044   8.406357 H        1 UNL1     0.0233
     97 H         5.662989   -9.992404   -2.269361 H        1 UNL1     0.0280
     98 H         6.452207   -8.533595   -2.804336 H        1 UNL1     0.0280
     99 H         7.239502   -9.569017   -1.576412 H        1 UNL1     0.0280
     100 H         5.158638   -10.708997   1.265264 H        1 UNL1     0.2922
     101 H         5.442264   -0.307399   0.770208 H        1 UNL1     0.0236
     102 H         5.561909   -0.401202   2.571026 H        1 UNL1     0.0236
     103 H         4.480384   0.713003   1.793629 H        1 UNL1     0.0236
     104 H         2.824701   1.263189   1.44991 H        1 UNL1     0.2098
     105 H         -0.180015   0.769781   -1.54461 H        1 UNL1     0.0234
     106 H         0.215859   -0.963553   -1.371595 H        1 UNL1     0.0234
     107 H         0.0   -0.0   0.0 H        1 UNL1     0.0234
     108 H         4.379112   0.278083   -2.894494 H        1 UNL1     0.2098
     109 H         -0.499577   -3.103096   -2.729225 H        1 UNL1     0.0234
     110 H         1.221887   -3.157431   -2.23283 H        1 UNL1     0.0234
     111 H         0.234007   -1.801282   -1.815941 H        1 UNL1     0.0234
     112 H         -3.290142   1.493328   -3.897966 H        1 UNL1     0.0342
     113 H         -2.913184   0.69685   -2.328965 H        1 UNL1     0.0342
     114 H         -2.812941   2.452761   -2.486123 H        1 UNL1     0.0342
     115 H         2.871643   0.200727   -5.610541 H        1 UNL1     0.0234
     116 H         2.052787   1.753459   -5.808746 H        1 UNL1     0.0234
     117 H         3.554765   1.575603   -4.878112 H        1 UNL1     0.0234
     118 H         3.26113   -6.638081   -3.828606 H        1 UNL1     0.0309
     119 H         2.467509   -6.705979   -2.224356 H        1 UNL1     0.0309
     120 H         2.331164   -5.301178   -3.258813 H        1 UNL1     0.0309
     121 H         4.583111   -1.838365   -3.746327 H        1 UNL1     0.0524
     122 H         4.793332   -0.277065   -4.549451 H        1 UNL1     0.0524
     123 H         3.571445   -0.449571   -3.264548 H        1 UNL1     0.0524
@<TRIPOS>BOND
     1     1     2    1
     2     1    42    1
     3     2     3    2
     4     3     4    1
     5     4     5    2
     6     5     7    1
     7     6    75    1
     8     6    76    1
     9     6    77    1
    10     7     9   am
    11     9    10    1
    12    10    11    2
    13    10    43    1
    14    11    14    1
    15    11    15    1
    16    12    13   ar
    17    12    27   ar
    18    12    43    1
    19    13    14    1
    20    13    30   ar
    21    14    17    2
    22    15    16    1
    23    16    17    1
    24    16    18    1
    25    16    22    1
    26    18    19    1
    27    19    20    1
    28    20    21    1
    29    21    22    1
    30    23    24    1
    31    23    88    1
    32    23    89    1
    33    24    25    1
    34    24    26    1
    35    24    90    1
    36    25    91    1
    37    25    92    1
    38    25    93    1
    39    26    94    1
    40    26    95    1
    41    26    96    1
    42    27    28   ar
    43    28    29   ar
    44    29    30   ar
    45    29    31    1
    46    30    33    1
    47    31    32    1
    48    32    33    1
    49    32    35    1
    50    34    97    1
    51    34    98    1
    52    34    99    1
    53    35    61    1
    54    36    37    1
    55    36    60    1
    56    37    38    1
    57    38    39    1
    58    39    40    1
    59    40    41    1
    60    41    42    1
    61    45   100    1
    62    47   101    1
    63    47   102    1
    64    47   103    1
    65    48   104    1
    66    49   105    1
    67    49   106    1
    68    49   107    1
    69    50   108    1
    70    51    59    1
    71    52   109    1
    72    52   110    1
    73    52   111    1
    74    53    54    1
    75    54    55    2
    76    54    56    1
    77    56   112    1
    78    56   113    1
    79    56   114    1
    80    57   115    1
    81    57   116    1
    82    57   117    1
    83    58   118    1
    84    58   119    1
    85    58   120    1
    86    59   121    1
    87    59   122    1
    88    59   123    1
    89    60    61    2
    90     1    47    1
    91     1    62    1
    92     2    63    1
    93     3    64    1
    94     4    65    1
    95     5     6    1
    96     7     8    2
    97     9    78    1
    98    15    79    1
    99    18    80    1
   100    18    81    1
   101    19    82    1
   102    19    83    1
   103    20    23    1
   104    21    84    1
   105    21    85    1
   106    22    86    1
   107    22    87    1
   108    27    45    1
   109    28    34    1
   110    32    58    1
   111    33    46    2
   112    36    51    1
   113    36    66    1
   114    37    52    1
   115    37    67    1
   116    38    53    1
   117    38    68    1
   118    42    48    1
   119    42    72    1
   120    43    44    2
   121    60    73    1
   122    61    74    1
   123    39    69    1
   124    39    57    1
   125    40    70    1
   126    40    50    1
   127    41    71    1
   128    41    49    1
