@<TRIPOS>MOLECULE
*****
 123 128 0 0 0
SMALL
GASTEIGER

@<TRIPOS>ATOM
     1 C         5.153838   1.857062   -0.03201 C.3        1 UNL1     0.0009
     2 C         6.712488   2.073998   0.948086 C.2        1 UNL1     -0.0787
     3 C         7.607983   2.915449   1.713655 C.2        1 UNL1     -0.0649
     4 C         8.998342   2.453998   2.562372 C.2        1 UNL1     -0.0542
     5 C         9.907573   2.817102   3.586351 C.2        1 UNL1     0.0115
     6 C         10.343163   3.973194   4.528176 C.3        1 UNL1     -0.0348
     7 C         10.847627   1.684982   4.227905 C.2        1 UNL1     0.2441
     8 O         12.028253   1.555661   3.934777 O.2        1 UNL1     -0.2702
     9 N         10.296446   1.021044   5.337652 N.am        1 UNL1     -0.2772
     10 C         9.550734   -0.060535   4.928479 C.2        1 UNL1     0.1049
     11 C         8.311933   0.196448   4.549594 C.2        1 UNL1     0.0801
     12 C         9.625992   -2.076247   3.449096 C.ar        1 UNL1     0.0753
     13 C         8.370986   -1.637256   2.91914 C.ar        1 UNL1     0.0305
     14 C         7.611275   -0.55785   3.545857 C.2        1 UNL1     0.0924
     15 N         7.579462   1.314399   4.691717 N.pl3        1 UNL1     -0.3170
     16 C         6.238092   1.01825   4.263608 C.3        1 UNL1     0.1275
     17 N         6.400046   -0.092134   3.25438 N.2        1 UNL1     -0.2557
     18 C         5.508355   0.404767   5.454753 C.3        1 UNL1     0.0016
     19 C         5.594712   1.368929   6.627153 C.3        1 UNL1     0.0026
     20 N         4.989442   2.634886   6.237244 N.3        1 UNL1     -0.3018
     21 C         5.58479   3.272513   5.06108 C.3        1 UNL1     0.0026
     22 C         5.483063   2.288371   3.894456 C.3        1 UNL1     0.0016
     23 C         4.750295   3.516001   7.362894 C.3        1 UNL1     0.0012
     24 C         3.61482   2.969785   8.242725 C.3        1 UNL1     -0.0339
     25 C         2.786343   4.107381   8.862046 C.3        1 UNL1     -0.0615
     26 C         2.745246   2.018294   7.439428 C.3        1 UNL1     -0.0615
     27 C         10.285397   -3.18316   2.9199 C.ar        1 UNL1     0.1347
     28 C         9.77113   -3.951499   1.890709 C.ar        1 UNL1     0.0342
     29 C         8.558244   -3.471617   1.352393 C.ar        1 UNL1     0.1435
     30 C         7.904244   -2.343152   1.848449 C.ar        1 UNL1     0.0774
     31 O         7.875673   -4.170886   0.419588 O.3        1 UNL1     -0.4436
     32 C         6.540602   -3.646456   0.478165 C.3        1 UNL1     0.3143
     33 C         6.685467   -2.259477   1.071052 C.2        1 UNL1     0.2504
     34 C         10.293295   -5.288082   1.442391 C.3        1 UNL1     -0.0327
     35 O         6.089431   -3.478224   -0.871426 O.2        1 UNL1     -0.4528
     36 C         2.325324   -3.958672   -0.777865 C.3        1 UNL1     0.0854
     37 C         1.242561   -3.182684   0.066523 C.3        1 UNL1     0.0236
     38 C         0.056176   -2.529715   -0.792468 C.3        1 UNL1     0.1131
     39 C         0.399056   -1.620799   -2.040897 C.3        1 UNL1     0.0200
     40 C         1.617195   -0.484891   -1.949866 C.3        1 UNL1     0.0661
     41 C         1.808976   0.670247   -0.722477 C.3        1 UNL1     0.0091
     42 C         3.329619   1.413128   -0.014538 C.3        1 UNL1     0.0661
     43 C         10.158899   -1.367743   4.639177 C.2        1 UNL1     0.2131
     44 O         10.969963   -1.855245   5.405503 O.2        1 UNL1     -0.2851
     45 O         11.524311   -3.516669   3.463316 O.3        1 UNL1     -0.5056
     46 O         5.968448   -1.295965   0.918139 O.2        1 UNL1     -0.2836
     47 C         5.310843   2.488457   -1.441503 C.3        1 UNL1     -0.0566
     48 O         2.82099   2.804197   -0.087613 O.3        1 UNL1     -0.3909
     49 C         0.916463   0.299064   0.440768 C.3        1 UNL1     -0.0577
     50 O         2.866799   -1.063488   -2.268359 O.3        1 UNL1     -0.3910
     51 O         2.217439   -3.837486   -2.17826 O.3        1 UNL1     -0.3753
     52 C         1.876213   -2.454557   1.296672 C.3        1 UNL1     -0.0564
     53 O         -1.124064   -2.111077   0.034636 O.3        1 UNL1     -0.4608
     54 C         -2.066575   -1.187515   -0.335008 C.2        1 UNL1     0.3042
     55 O         -2.158998   -0.021213   0.045828 O.2        1 UNL1     -0.2512
     56 C         -3.035795   -1.696088   -1.36393 C.3        1 UNL1     0.0332
     57 C         0.340141   -2.547726   -3.343015 C.3        1 UNL1     -0.0567
     58 C         5.764242   -4.53697   1.476054 C.3        1 UNL1     0.0210
     59 C         2.752418   -4.934196   -2.917779 C.3        1 UNL1     0.0372
     60 C         3.737875   -3.646942   -0.427599 C.2        1 UNL1     -0.0208
     61 C         4.78849   -3.399962   -1.211151 C.2        1 UNL1     0.0882
     62 H         5.391538   0.791718   -0.138091 H        1 UNL1     0.0365
     63 H         7.15899   1.083066   0.842448 H        1 UNL1     0.0576
     64 H         7.356382   3.951326   1.951906 H        1 UNL1     0.0615
     65 H         9.204809   1.444954   2.195378 H        1 UNL1     0.0622
     66 H         2.175665   -5.015191   -0.514398 H        1 UNL1     0.0645
     67 H         0.70638   -3.978968   0.611502 H        1 UNL1     0.0362
     68 H         -0.392221   -3.443549   -1.211237 H        1 UNL1     0.0741
     69 H         -0.467666   -1.02016   -2.282629 H        1 UNL1     0.0359
     70 H         1.366411   0.13476   -2.832023 H        1 UNL1     0.0600
     71 H         1.248274   1.51703   -1.164664 H        1 UNL1     0.0348
     72 H         3.621185   0.996722   -0.989684 H        1 UNL1     0.0602
     73 H         3.872602   -3.76572   0.618818 H        1 UNL1     0.0628
     74 H         4.726856   -3.207864   -2.282849 H        1 UNL1     0.1022
     75 H         10.719472   4.841341   3.935093 H        1 UNL1     0.0279
     76 H         9.561772   4.425133   5.13501 H        1 UNL1     0.0279
     77 H         11.228982   3.72109   5.129399 H        1 UNL1     0.0279
     78 H         9.673168   1.651084   5.838303 H        1 UNL1     0.1553
     79 H         7.791776   2.039127   5.352493 H        1 UNL1     0.1484
     80 H         4.466659   0.208545   5.173448 H        1 UNL1     0.0317
     81 H         5.94681   -0.561305   5.72699 H        1 UNL1     0.0317
     82 H         6.633064   1.51267   6.960435 H        1 UNL1     0.0428
     83 H         5.069692   0.911085   7.466071 H        1 UNL1     0.0428
     84 H         5.061975   4.179539   4.742051 H        1 UNL1     0.0428
     85 H         6.611887   3.611004   5.255534 H        1 UNL1     0.0428
     86 H         5.803993   2.833999   3.026538 H        1 UNL1     0.0317
     87 H         4.430009   2.068142   3.680742 H        1 UNL1     0.0317
     88 H         5.668099   3.559256   7.963775 H        1 UNL1     0.0429
     89 H         4.53559   4.539505   7.029554 H        1 UNL1     0.0429
     90 H         4.045337   2.370038   9.053387 H        1 UNL1     0.0308
     91 H         2.536208   4.86846   8.116866 H        1 UNL1     0.0233
     92 H         1.86452   3.718981   9.301361 H        1 UNL1     0.0233
     93 H         3.319515   4.61887   9.672564 H        1 UNL1     0.0233
     94 H         1.754974   1.931929   7.899578 H        1 UNL1     0.0233
     95 H         2.612706   2.400723   6.423484 H        1 UNL1     0.0233
     96 H         3.189604   1.020476   7.385824 H        1 UNL1     0.0233
     97 H         9.650086   -5.748008   0.698093 H        1 UNL1     0.0280
     98 H         11.284229   -5.21009   0.976318 H        1 UNL1     0.0280
     99 H         10.360634   -5.967222   2.308029 H        1 UNL1     0.0280
     100 H         11.619335   -4.424171   3.693605 H        1 UNL1     0.2922
     101 H         4.375831   2.393365   -1.993197 H        1 UNL1     0.0236
     102 H         6.157059   2.087982   -1.998749 H        1 UNL1     0.0236
     103 H         5.496512   3.57433   -1.390519 H        1 UNL1     0.0236
     104 H         2.314188   2.889663   -0.918768 H        1 UNL1     0.2098
     105 H         1.28287   -0.529685   1.041377 H        1 UNL1     0.0234
     106 H         0.633016   1.133793   1.081715 H        1 UNL1     0.0234
     107 H         -0.0   0.0   0.0 H        1 UNL1     0.0234
     108 H         3.55833   -0.435602   -1.983207 H        1 UNL1     0.2098
     109 H         2.648944   -1.731824   0.999592 H        1 UNL1     0.0234
     110 H         1.134729   -1.957899   1.931711 H        1 UNL1     0.0234
     111 H         2.374866   -3.161732   1.972834 H        1 UNL1     0.0234
     112 H         -4.053761   -1.3971   -1.096167 H        1 UNL1     0.0342
     113 H         -2.781153   -1.359886   -2.367907 H        1 UNL1     0.0342
     114 H         -2.995313   -2.794046   -1.360291 H        1 UNL1     0.0342
     115 H         -0.009647   -1.992383   -4.224168 H        1 UNL1     0.0234
     116 H         1.294955   -3.008876   -3.603247 H        1 UNL1     0.0234
     117 H         -0.418179   -3.347056   -3.280052 H        1 UNL1     0.0234
     118 H         5.06434   -5.220409   0.964142 H        1 UNL1     0.0309
     119 H         6.419283   -5.119949   2.131233 H        1 UNL1     0.0309
     120 H         5.111998   -3.956713   2.137858 H        1 UNL1     0.0309
     121 H         3.036942   -4.561165   -3.901268 H        1 UNL1     0.0524
     122 H         3.657125   -5.354248   -2.447567 H        1 UNL1     0.0524
     123 H         2.008713   -5.719953   -3.015671 H        1 UNL1     0.0524
@<TRIPOS>BOND
     1     1     2    1
     2     1    42    1
     3     2     3    2
     4     3     4    1
     5     4     5    2
     6     5     7    1
     7     6    75    1
     8     6    76    1
     9     6    77    1
    10     7     9   am
    11     9    10    1
    12    10    11    2
    13    10    43    1
    14    11    14    1
    15    11    15    1
    16    12    13   ar
    17    12    27   ar
    18    12    43    1
    19    13    14    1
    20    13    30   ar
    21    14    17    2
    22    15    16    1
    23    16    17    1
    24    16    18    1
    25    16    22    1
    26    18    19    1
    27    19    20    1
    28    20    21    1
    29    21    22    1
    30    23    24    1
    31    23    88    1
    32    23    89    1
    33    24    25    1
    34    24    26    1
    35    24    90    1
    36    25    91    1
    37    25    92    1
    38    25    93    1
    39    26    94    1
    40    26    95    1
    41    26    96    1
    42    27    28   ar
    43    28    29   ar
    44    29    30   ar
    45    29    31    1
    46    30    33    1
    47    31    32    1
    48    32    33    1
    49    32    35    1
    50    34    97    1
    51    34    98    1
    52    34    99    1
    53    35    61    1
    54    36    37    1
    55    36    60    1
    56    37    38    1
    57    38    39    1
    58    39    40    1
    59    40    41    1
    60    41    42    1
    61    45   100    1
    62    47   101    1
    63    47   102    1
    64    47   103    1
    65    48   104    1
    66    49   105    1
    67    49   106    1
    68    49   107    1
    69    50   108    1
    70    51    59    1
    71    52   109    1
    72    52   110    1
    73    52   111    1
    74    53    54    1
    75    54    55    2
    76    54    56    1
    77    56   112    1
    78    56   113    1
    79    56   114    1
    80    57   115    1
    81    57   116    1
    82    57   117    1
    83    58   118    1
    84    58   119    1
    85    58   120    1
    86    59   121    1
    87    59   122    1
    88    59   123    1
    89    60    61    2
    90     1    47    1
    91     1    62    1
    92     2    63    1
    93     3    64    1
    94     4    65    1
    95     5     6    1
    96     7     8    2
    97     9    78    1
    98    15    79    1
    99    18    80    1
   100    18    81    1
   101    19    82    1
   102    19    83    1
   103    20    23    1
   104    21    84    1
   105    21    85    1
   106    22    86    1
   107    22    87    1
   108    27    45    1
   109    28    34    1
   110    32    58    1
   111    33    46    2
   112    36    51    1
   113    36    66    1
   114    37    52    1
   115    37    67    1
   116    38    53    1
   117    38    68    1
   118    42    48    1
   119    42    72    1
   120    43    44    2
   121    60    73    1
   122    61    74    1
   123    39    69    1
   124    39    57    1
   125    40    70    1
   126    40    50    1
   127    41    71    1
   128    41    49    1
