@<TRIPOS>MOLECULE
*****
 123 128 0 0 0
SMALL
GASTEIGER

@<TRIPOS>ATOM
     1 C         5.166587   1.752454   0.484312 C.3        1 UNL1     0.0009
     2 C         6.602906   2.555916   -0.369194 C.2        1 UNL1     -0.0787
     3 C         7.884758   2.455719   -1.034674 C.2        1 UNL1     -0.0649
     4 C         8.761692   3.688345   -1.794922 C.2        1 UNL1     -0.0542
     5 C         9.781525   3.97787   -2.734705 C.2        1 UNL1     0.0115
     6 C         10.909867   3.349622   -3.598113 C.3        1 UNL1     -0.0348
     7 C         9.876275   5.4589   -3.346721 C.2        1 UNL1     0.2441
     8 O         10.6999   6.282238   -2.972177 O.2        1 UNL1     -0.2702
     9 N         9.12587   5.661252   -4.518086 N.am        1 UNL1     -0.2772
     10 C         7.843046   6.048635   -4.205647 C.2        1 UNL1     0.1049
     11 C         6.997636   5.078009   -3.910029 C.2        1 UNL1     0.0801
     12 C         6.54421   7.660046   -2.800758 C.ar        1 UNL1     0.0753
     13 C         5.785598   6.533528   -2.349014 C.ar        1 UNL1     0.0305
     14 C         5.902937   5.225482   -2.98956 C.2        1 UNL1     0.0924
     15 N         7.120717   3.748494   -4.064196 N.pl3        1 UNL1     -0.3170
     16 C         5.851102   3.15004   -3.747678 C.3        1 UNL1     0.1275
     17 N         5.214452   4.108677   -2.771249 N.2        1 UNL1     -0.2557
     18 C         4.998115   3.204114   -5.011478 C.3        1 UNL1     0.0016
     19 C         5.753135   2.516108   -6.137613 C.3        1 UNL1     0.0026
     20 N         6.023807   1.139544   -5.746667 N.3        1 UNL1     -0.3018
     21 C         6.787338   0.984025   -4.506827 C.3        1 UNL1     0.0026
     22 C         6.00845   1.678423   -3.388328 C.3        1 UNL1     0.0016
     23 C         6.468503   0.316052   -6.853351 C.3        1 UNL1     0.0012
     24 C         5.313056   0.062519   -7.83438 C.3        1 UNL1     -0.0339
     25 C         5.388219   1.004462   -9.04729 C.3        1 UNL1     -0.0615
     26 C         5.300848   -1.395686   -8.25896 C.3        1 UNL1     -0.0615
     27 C         6.339146   8.929661   -2.265833 C.ar        1 UNL1     0.1347
     28 C         5.380082   9.202429   -1.306748 C.ar        1 UNL1     0.0342
     29 C         4.67897   8.069446   -0.842039 C.ar        1 UNL1     0.1435
     30 C         4.898825   6.785629   -1.342737 C.ar        1 UNL1     0.0774
     31 O         3.63802   8.185809   0.011125 O.3        1 UNL1     -0.4436
     32 C         2.91677   6.952211   -0.126385 C.3        1 UNL1     0.3143
     33 C         3.930371   5.957498   -0.65494 C.2        1 UNL1     0.2504
     34 C         4.932797   10.570001   -0.871107 C.3        1 UNL1     -0.0327
     35 O         2.556419   6.520277   1.191505 O.2        1 UNL1     -0.4528
     36 C         -0.685974   4.585469   0.802281 C.3        1 UNL1     0.0854
     37 C         -0.990918   3.321448   -0.090346 C.3        1 UNL1     0.0236
     38 C         -1.590943   2.063128   0.702336 C.3        1 UNL1     0.1131
     39 C         -0.864864   1.537297   2.005632 C.3        1 UNL1     0.0200
     40 C         0.796384   1.3925   2.047171 C.3        1 UNL1     0.0661
     41 C         1.75591   0.61967   0.881128 C.3        1 UNL1     0.0091
     42 C         3.46331   0.980737   0.315603 C.3        1 UNL1     0.0661
     43 C         7.494212   7.448514   -3.92103 C.2        1 UNL1     0.2131
     44 O         7.893701   8.344055   -4.642939 O.2        1 UNL1     -0.2851
     45 O         7.150996   9.963346   -2.728256 O.3        1 UNL1     -0.5056
     46 O         3.946804   4.754465   -0.519686 O.2        1 UNL1     -0.2836
     47 C         5.563251   1.328476   1.924063 C.3        1 UNL1     -0.0566
     48 O         3.912386   -0.429894   0.402596 O.3        1 UNL1     -0.3909
     49 C         0.921678   0.382167   -0.35788 C.3        1 UNL1     -0.0577
     50 O         1.396189   2.612031   2.435374 O.3        1 UNL1     -0.3910
     51 O         -0.80985   4.400935   2.194414 O.3        1 UNL1     -0.3753
     52 C         0.053474   3.157057   -1.242375 C.3        1 UNL1     -0.0564
     53 O         -2.19327   1.020585   -0.193562 O.3        1 UNL1     -0.4608
     54 C         -2.427178   -0.284976   0.151008 C.2        1 UNL1     0.3042
     55 O         -1.85777   -1.285528   -0.283167 O.2        1 UNL1     -0.2512
     56 C         -3.467025   -0.446997   1.223007 C.3        1 UNL1     0.0332
     57 C         -1.585998   2.21073   3.264452 C.3        1 UNL1     -0.0567
     58 C         1.841373   7.192877   -1.211342 C.3        1 UNL1     0.0210
     59 C         -1.123389   5.582579   2.930128 C.3        1 UNL1     0.0372
     60 C         0.642773   5.214161   0.569179 C.2        1 UNL1     -0.0208
     61 C         1.555646   5.652957   1.436857 C.2        1 UNL1     0.0882
     62 H         4.690326   2.736776   0.56796 H        1 UNL1     0.0365
     63 H         6.336296   3.610006   -0.267792 H        1 UNL1     0.0576
     64 H         8.342731   1.488214   -1.252164 H        1 UNL1     0.0615
     65 H         8.274322   4.604856   -1.451467 H        1 UNL1     0.0622
     66 H         -1.430923   5.330571   0.489357 H        1 UNL1     0.0645
     67 H         -1.856642   3.628224   -0.702694 H        1 UNL1     0.0362
     68 H         -2.53813   2.500978   1.052545 H        1 UNL1     0.0741
     69 H         -1.196007   0.526818   2.204841 H        1 UNL1     0.0359
     70 H         0.90849   0.735502   2.930826 H        1 UNL1     0.0600
     71 H         1.799901   -0.399879   1.311873 H        1 UNL1     0.0348
     72 H         3.357363   1.472558   1.29346 H        1 UNL1     0.0602
     73 H         0.760485   5.407582   -0.468116 H        1 UNL1     0.0628
     74 H         1.538294   5.446281   2.507474 H        1 UNL1     0.1022
     75 H         10.936143   2.241459   -3.462768 H        1 UNL1     0.0279
     76 H         10.809516   3.451618   -4.67635 H        1 UNL1     0.0279
     77 H         11.915671   3.633772   -3.255598 H        1 UNL1     0.0279
     78 H         9.064119   4.789328   -5.039634 H        1 UNL1     0.1553
     79 H         7.78607   3.318436   -4.68006 H        1 UNL1     0.1484
     80 H         4.037029   2.713569   -4.815402 H        1 UNL1     0.0317
     81 H         4.77111   4.239768   -5.286325 H        1 UNL1     0.0317
     82 H         6.683582   3.046808   -6.387688 H        1 UNL1     0.0428
     83 H         5.127863   2.567699   -7.029479 H        1 UNL1     0.0428
     84 H         6.908061   -0.057722   -4.193778 H        1 UNL1     0.0428
     85 H         7.817288   1.352031   -4.612136 H        1 UNL1     0.0428
     86 H         6.525063   1.431636   -2.479375 H        1 UNL1     0.0317
     87 H         5.029188   1.200911   -3.261343 H        1 UNL1     0.0317
     88 H         7.264316   0.856156   -7.382752 H        1 UNL1     0.0429
     89 H         6.901472   -0.62825   -6.498943 H        1 UNL1     0.0429
     90 H         4.360365   0.232365   -7.318874 H        1 UNL1     0.0308
     91 H         6.343216   0.902581   -9.571411 H        1 UNL1     0.0233
     92 H         4.572614   0.801357   -9.745249 H        1 UNL1     0.0233
     93 H         5.292131   2.059442   -8.763352 H        1 UNL1     0.0233
     94 H         4.608718   -1.539672   -9.095656 H        1 UNL1     0.0233
     95 H         6.298431   -1.696501   -8.591075 H        1 UNL1     0.0233
     96 H         4.990639   -2.047837   -7.437718 H        1 UNL1     0.0233
     97 H         4.133265   10.522814   -0.137791 H        1 UNL1     0.0280
     98 H         5.742979   11.138628   -0.396213 H        1 UNL1     0.0280
     99 H         4.567628   11.13452   -1.744643 H        1 UNL1     0.0280
     100 H         6.683675   10.713107   -3.052434 H        1 UNL1     0.2922
     101 H         4.697502   0.907854   2.435153 H        1 UNL1     0.0236
     102 H         6.024907   2.132749   2.495903 H        1 UNL1     0.0236
     103 H         6.31061   0.517524   1.925887 H        1 UNL1     0.0236
     104 H         4.326684   -0.554033   1.278905 H        1 UNL1     0.2098
     105 H         0.708646   1.278771   -0.934534 H        1 UNL1     0.0234
     106 H         1.291272   -0.408173   -1.011096 H        1 UNL1     0.0234
     107 H         0.0   -0.0   0.0 H        1 UNL1     0.0234
     108 H         1.212351   3.262922   1.73088 H        1 UNL1     0.2098
     109 H         1.079837   3.057759   -0.862335 H        1 UNL1     0.0234
     110 H         -0.172083   2.319754   -1.911547 H        1 UNL1     0.0234
     111 H         0.06549   4.03217   -1.905684 H        1 UNL1     0.0234
     112 H         -3.590013   -1.507021   1.465016 H        1 UNL1     0.0342
     113 H         -3.230216   0.132302   2.114174 H        1 UNL1     0.0342
     114 H         -4.424617   -0.077808   0.830729 H        1 UNL1     0.0342
     115 H         -2.655528   1.962217   3.30361 H        1 UNL1     0.0234
     116 H         -1.14933   1.934724   4.226321 H        1 UNL1     0.0234
     117 H         -1.624995   3.312383   3.211704 H        1 UNL1     0.0234
     118 H         0.939551   7.679593   -0.800453 H        1 UNL1     0.0309
     119 H         2.210008   7.779122   -2.059061 H        1 UNL1     0.0309
     120 H         1.454192   6.259228   -1.633829 H        1 UNL1     0.0309
     121 H         -0.28561   6.270783   2.821227 H        1 UNL1     0.0524
     122 H         -2.022513   6.090239   2.542965 H        1 UNL1     0.0524
     123 H         -1.277704   5.342819   3.978363 H        1 UNL1     0.0524
@<TRIPOS>BOND
     1     1     2    1
     2     1    42    1
     3     2     3    2
     4     3     4    1
     5     4     5    2
     6     5     7    1
     7     6    75    1
     8     6    76    1
     9     6    77    1
    10     7     9   am
    11     9    10    1
    12    10    11    2
    13    10    43    1
    14    11    14    1
    15    11    15    1
    16    12    13   ar
    17    12    27   ar
    18    12    43    1
    19    13    14    1
    20    13    30   ar
    21    14    17    2
    22    15    16    1
    23    16    17    1
    24    16    18    1
    25    16    22    1
    26    18    19    1
    27    19    20    1
    28    20    21    1
    29    21    22    1
    30    23    24    1
    31    23    88    1
    32    23    89    1
    33    24    25    1
    34    24    26    1
    35    24    90    1
    36    25    91    1
    37    25    92    1
    38    25    93    1
    39    26    94    1
    40    26    95    1
    41    26    96    1
    42    27    28   ar
    43    28    29   ar
    44    29    30   ar
    45    29    31    1
    46    30    33    1
    47    31    32    1
    48    32    33    1
    49    32    35    1
    50    34    97    1
    51    34    98    1
    52    34    99    1
    53    35    61    1
    54    36    37    1
    55    36    60    1
    56    37    38    1
    57    38    39    1
    58    39    40    1
    59    40    41    1
    60    41    42    1
    61    45   100    1
    62    47   101    1
    63    47   102    1
    64    47   103    1
    65    48   104    1
    66    49   105    1
    67    49   106    1
    68    49   107    1
    69    50   108    1
    70    51    59    1
    71    52   109    1
    72    52   110    1
    73    52   111    1
    74    53    54    1
    75    54    55    2
    76    54    56    1
    77    56   112    1
    78    56   113    1
    79    56   114    1
    80    57   115    1
    81    57   116    1
    82    57   117    1
    83    58   118    1
    84    58   119    1
    85    58   120    1
    86    59   121    1
    87    59   122    1
    88    59   123    1
    89    60    61    2
    90     1    47    1
    91     1    62    1
    92     2    63    1
    93     3    64    1
    94     4    65    1
    95     5     6    1
    96     7     8    2
    97     9    78    1
    98    15    79    1
    99    18    80    1
   100    18    81    1
   101    19    82    1
   102    19    83    1
   103    20    23    1
   104    21    84    1
   105    21    85    1
   106    22    86    1
   107    22    87    1
   108    27    45    1
   109    28    34    1
   110    32    58    1
   111    33    46    2
   112    36    51    1
   113    36    66    1
   114    37    52    1
   115    37    67    1
   116    38    53    1
   117    38    68    1
   118    42    48    1
   119    42    72    1
   120    43    44    2
   121    60    73    1
   122    61    74    1
   123    39    69    1
   124    39    57    1
   125    40    70    1
   126    40    50    1
   127    41    71    1
   128    41    49    1
