@<TRIPOS>MOLECULE
*****
 123 128 0 0 0
SMALL
GASTEIGER

@<TRIPOS>ATOM
     1 C         -4.427128   -1.015727   -2.6466 C.3        1 UNL1     0.0009
     2 C         -5.145461   -0.831045   -4.345695 C.2        1 UNL1     -0.0787
     3 C         -6.11582   -0.237727   -5.241477 C.2        1 UNL1     -0.0649
     4 C         -6.210569   -0.394624   -6.924558 C.2        1 UNL1     -0.0542
     5 C         -6.725432   0.172511   -8.116343 C.2        1 UNL1     0.0115
     6 C         -7.696371   1.246454   -8.679591 C.3        1 UNL1     -0.0348
     7 C         -6.082961   -0.259057   -9.522746 C.2        1 UNL1     0.2441
     8 O         -6.616627   -1.056781   -10.281272 O.2        1 UNL1     -0.2702
     9 N         -5.000865   0.53334   -9.943848 N.am        1 UNL1     -0.2772
     10 C         -3.819632   0.040653   -9.438605 C.2        1 UNL1     0.1049
     11 C         -3.518963   0.401735   -8.204327 C.2        1 UNL1     0.0801
     12 C         -2.496432   -2.067042   -9.185432 C.ar        1 UNL1     0.0753
     13 C         -2.375795   -1.732114   -7.799114 C.ar        1 UNL1     0.0305
     14 C         -2.771524   -0.420278   -7.291634 C.2        1 UNL1     0.0924
     15 N         -4.071348   1.344094   -7.421157 N.pl3        1 UNL1     -0.3170
     16 C         -3.265872   1.456524   -6.234218 C.3        1 UNL1     0.1275
     17 N         -2.640172   0.092784   -6.071618 N.2        1 UNL1     -0.2557
     18 C         -2.120616   2.412523   -6.553838 C.3        1 UNL1     0.0016
     19 C         -2.706818   3.727819   -7.041643 C.3        1 UNL1     0.0026
     20 N         -3.567678   4.271126   -6.000122 N.3        1 UNL1     -0.3018
     21 C         -4.664334   3.396028   -5.580698 C.3        1 UNL1     0.0026
     22 C         -4.052482   2.082653   -5.090211 C.3        1 UNL1     0.0016
     23 C         -3.935921   5.65282   -6.236687 C.3        1 UNL1     0.0012
     24 C         -5.324616   5.948404   -5.648544 C.3        1 UNL1     -0.0339
     25 C         -6.407269   5.958026   -6.740251 C.3        1 UNL1     -0.0615
     26 C         -5.647772   4.951103   -4.549571 C.3        1 UNL1     -0.0615
     27 C         -2.006308   -3.272581   -9.681992 C.ar        1 UNL1     0.1347
     28 C         -1.343729   -4.201462   -8.899548 C.ar        1 UNL1     0.0342
     29 C         -1.279994   -3.872398   -7.528847 C.ar        1 UNL1     0.1435
     30 C         -1.798496   -2.684941   -7.01085 C.ar        1 UNL1     0.0774
     31 O         -0.571508   -4.621923   -6.656341 O.3        1 UNL1     -0.4436
     32 C         -0.349146   -3.756988   -5.532369 C.3        1 UNL1     0.3143
     33 C         -1.452758   -2.721153   -5.605176 C.2        1 UNL1     0.2504
     34 C         -0.574673   -5.390781   -9.403704 C.3        1 UNL1     -0.0327
     35 O         -0.579806   -4.529799   -4.347966 O.2        1 UNL1     -0.4528
     36 C         1.681418   -3.049476   -1.682708 C.3        1 UNL1     0.0854
     37 C         1.748649   -1.568995   -1.143097 C.3        1 UNL1     0.0236
     38 C         1.580236   -1.420085   0.444734 C.3        1 UNL1     0.1131
     39 C         0.361531   -2.116871   1.173785 C.3        1 UNL1     0.0200
     40 C         -1.168593   -2.050119   0.512949 C.3        1 UNL1     0.0661
     41 C         -1.954521   -0.649839   -0.033992 C.3        1 UNL1     0.0091
     42 C         -3.15977   -0.417185   -1.397315 C.3        1 UNL1     0.0661
     43 C         -3.080861   -1.049151   -10.093507 C.2        1 UNL1     0.2131
     44 O         -2.89011   -1.031147   -11.296016 O.2        1 UNL1     -0.2851
     45 O         -2.204899   -3.541504   -11.034649 O.3        1 UNL1     -0.5056
     46 O         -1.950064   -2.08524   -4.70287 O.2        1 UNL1     -0.2836
     47 C         -5.35824   -1.884742   -1.759005 C.3        1 UNL1     -0.0566
     48 O         -4.100655   0.387424   -0.580947 O.3        1 UNL1     -0.3909
     49 C         -0.94046   0.466663   -0.146221 C.3        1 UNL1     -0.0577
     50 O         -1.363129   -3.104399   -0.408122 O.3        1 UNL1     -0.3910
     51 O         1.311423   -4.031917   -0.74178 O.3        1 UNL1     -0.3753
     52 C         1.107742   -0.554624   -2.145713 C.3        1 UNL1     -0.0564
     53 O         1.992134   -0.075488   0.968875 O.3        1 UNL1     -0.4608
     54 C         1.489359   0.528348   2.091608 C.2        1 UNL1     0.3042
     55 O         0.310722   0.598626   2.437605 O.2        1 UNL1     -0.2512
     56 C         2.547119   1.103226   2.990147 C.3        1 UNL1     0.0332
     57 C         0.873294   -3.527387   1.727607 C.3        1 UNL1     -0.0567
     58 C         1.008037   -3.058206   -5.779929 C.3        1 UNL1     0.0210
     59 C         1.203005   -5.354156   -1.266941 C.3        1 UNL1     0.0372
     60 C         0.810299   -3.245846   -2.873402 C.2        1 UNL1     -0.0208
     61 C         -0.089291   -4.193845   -3.139447 C.2        1 UNL1     0.0882
     62 H         -3.669621   -1.691762   -3.061175 H        1 UNL1     0.0365
     63 H         -4.552343   -1.562822   -4.89813 H        1 UNL1     0.0576
     64 H         -6.811473   0.533147   -4.902469 H        1 UNL1     0.0615
     65 H         -5.544985   -1.233344   -7.145988 H        1 UNL1     0.0622
     66 H         2.704895   -3.267466   -2.018896 H        1 UNL1     0.0645
     67 H         2.805702   -1.281648   -1.279592 H        1 UNL1     0.0362
     68 H         2.472992   -1.971591   0.776924 H        1 UNL1     0.0741
     69 H         0.222635   -1.652205   2.140843 H        1 UNL1     0.0359
     70 H         -1.770334   -2.339474   1.395695 H        1 UNL1     0.0600
     71 H         -2.495874   -0.359502   0.887745 H        1 UNL1     0.0348
     72 H         -3.174203   -1.490801   -1.159711 H        1 UNL1     0.0602
     73 H         1.084172   -2.548165   -3.625388 H        1 UNL1     0.0628
     74 H         -0.466363   -4.90896   -2.407556 H        1 UNL1     0.1022
     75 H         -7.452356   1.475354   -9.745 H        1 UNL1     0.0279
     76 H         -8.746895   0.969869   -8.734082 H        1 UNL1     0.0279
     77 H         -7.560035   2.231412   -8.209515 H        1 UNL1     0.0279
     78 H         -5.113319   1.481361   -9.590736 H        1 UNL1     0.1553
     79 H         -4.63429   2.098136   -7.769653 H        1 UNL1     0.1484
     80 H         -1.511832   2.555033   -5.652817 H        1 UNL1     0.0317
     81 H         -1.458047   1.988453   -7.315952 H        1 UNL1     0.0317
     82 H         -3.257856   3.602841   -7.985385 H        1 UNL1     0.0428
     83 H         -1.873109   4.39404   -7.265536 H        1 UNL1     0.0428
     84 H         -5.246735   3.793149   -4.74349 H        1 UNL1     0.0428
     85 H         -5.405752   3.258113   -6.379819 H        1 UNL1     0.0428
     86 H         -4.867302   1.522756   -4.670006 H        1 UNL1     0.0317
     87 H         -3.402466   2.271383   -4.227102 H        1 UNL1     0.0317
     88 H         -3.199768   6.293399   -5.733664 H        1 UNL1     0.0429
     89 H         -3.898344   5.898059   -7.305902 H        1 UNL1     0.0429
     90 H         -5.307809   6.932212   -5.164755 H        1 UNL1     0.0308
     91 H         -6.001152   5.642399   -7.705938 H        1 UNL1     0.0233
     92 H         -7.236422   5.30084   -6.467818 H        1 UNL1     0.0233
     93 H         -6.842281   6.953866   -6.888247 H        1 UNL1     0.0233
     94 H         -6.516382   4.346366   -4.831787 H        1 UNL1     0.0233
     95 H         -4.801508   4.275295   -4.397636 H        1 UNL1     0.0233
     96 H         -5.870273   5.455975   -3.605344 H        1 UNL1     0.0233
     97 H         -0.930179   -6.320099   -8.968716 H        1 UNL1     0.0280
     98 H         -0.667337   -5.51299   -10.49078 H        1 UNL1     0.0280
     99 H         0.491633   -5.275706   -9.149059 H        1 UNL1     0.0280
     100 H         -2.201473   -4.456016   -11.256639 H        1 UNL1     0.2922
     101 H         -4.758178   -2.540959   -1.128956 H        1 UNL1     0.0236
     102 H         -6.103498   -2.436325   -2.331133 H        1 UNL1     0.0236
     103 H         -5.942957   -1.274475   -1.050576 H        1 UNL1     0.0236
     104 H         -3.671735   0.558854   0.280221 H        1 UNL1     0.2098
     105 H         -0.920344   0.95938   -1.115054 H        1 UNL1     0.0234
     106 H         -0.987279   1.206367   0.652887 H        1 UNL1     0.0234
     107 H         0.0   0.0   0.0 H        1 UNL1     0.0234
     108 H         -1.691165   -3.873564   0.096403 H        1 UNL1     0.2098
     109 H         1.808398   -0.252405   -2.93657 H        1 UNL1     0.0234
     110 H         0.181315   -0.924047   -2.598487 H        1 UNL1     0.0234
     111 H         0.806745   0.374791   -1.644181 H        1 UNL1     0.0234
     112 H         2.092912   1.799764   3.701397 H        1 UNL1     0.0342
     113 H         3.1103   0.328145   3.507758 H        1 UNL1     0.0342
     114 H         3.254293   1.669784   2.368794 H        1 UNL1     0.0342
     115 H         0.388687   -3.793508   2.677094 H        1 UNL1     0.0234
     116 H         0.719231   -4.358174   1.036155 H        1 UNL1     0.0234
     117 H         1.936216   -3.52401   2.02447 H        1 UNL1     0.0234
     118 H         1.090065   -2.104849   -5.229122 H        1 UNL1     0.0309
     119 H         1.867602   -3.689468   -5.533231 H        1 UNL1     0.0309
     120 H         1.142012   -2.758401   -6.825048 H        1 UNL1     0.0309
     121 H         0.155164   -5.527167   -1.510771 H        1 UNL1     0.0524
     122 H         1.785582   -5.485175   -2.19402 H        1 UNL1     0.0524
     123 H         1.541576   -6.079272   -0.532319 H        1 UNL1     0.0524
@<TRIPOS>BOND
     1     1     2    1
     2     1    42    1
     3     2     3    2
     4     3     4    1
     5     4     5    2
     6     5     7    1
     7     6    75    1
     8     6    76    1
     9     6    77    1
    10     7     9   am
    11     9    10    1
    12    10    11    2
    13    10    43    1
    14    11    14    1
    15    11    15    1
    16    12    13   ar
    17    12    27   ar
    18    12    43    1
    19    13    14    1
    20    13    30   ar
    21    14    17    2
    22    15    16    1
    23    16    17    1
    24    16    18    1
    25    16    22    1
    26    18    19    1
    27    19    20    1
    28    20    21    1
    29    21    22    1
    30    23    24    1
    31    23    88    1
    32    23    89    1
    33    24    25    1
    34    24    26    1
    35    24    90    1
    36    25    91    1
    37    25    92    1
    38    25    93    1
    39    26    94    1
    40    26    95    1
    41    26    96    1
    42    27    28   ar
    43    28    29   ar
    44    29    30   ar
    45    29    31    1
    46    30    33    1
    47    31    32    1
    48    32    33    1
    49    32    35    1
    50    34    97    1
    51    34    98    1
    52    34    99    1
    53    35    61    1
    54    36    37    1
    55    36    60    1
    56    37    38    1
    57    38    39    1
    58    39    40    1
    59    40    41    1
    60    41    42    1
    61    45   100    1
    62    47   101    1
    63    47   102    1
    64    47   103    1
    65    48   104    1
    66    49   105    1
    67    49   106    1
    68    49   107    1
    69    50   108    1
    70    51    59    1
    71    52   109    1
    72    52   110    1
    73    52   111    1
    74    53    54    1
    75    54    55    2
    76    54    56    1
    77    56   112    1
    78    56   113    1
    79    56   114    1
    80    57   115    1
    81    57   116    1
    82    57   117    1
    83    58   118    1
    84    58   119    1
    85    58   120    1
    86    59   121    1
    87    59   122    1
    88    59   123    1
    89    60    61    2
    90     1    47    1
    91     1    62    1
    92     2    63    1
    93     3    64    1
    94     4    65    1
    95     5     6    1
    96     7     8    2
    97     9    78    1
    98    15    79    1
    99    18    80    1
   100    18    81    1
   101    19    82    1
   102    19    83    1
   103    20    23    1
   104    21    84    1
   105    21    85    1
   106    22    86    1
   107    22    87    1
   108    27    45    1
   109    28    34    1
   110    32    58    1
   111    33    46    2
   112    36    51    1
   113    36    66    1
   114    37    52    1
   115    37    67    1
   116    38    53    1
   117    38    68    1
   118    42    48    1
   119    42    72    1
   120    43    44    2
   121    60    73    1
   122    61    74    1
   123    39    69    1
   124    39    57    1
   125    40    70    1
   126    40    50    1
   127    41    71    1
   128    41    49    1
