@<TRIPOS>MOLECULE
*****
 123 128 0 0 0
SMALL
GASTEIGER

@<TRIPOS>ATOM
     1 C         5.167016   1.749494   0.490394 C.3        1 UNL1     0.0009
     2 C         6.603282   2.556244   -0.360096 C.2        1 UNL1     -0.0787
     3 C         7.88496   2.458587   -1.026286 C.2        1 UNL1     -0.0649
     4 C         8.76194   3.694208   -1.781602 C.2        1 UNL1     -0.0542
     5 C         9.781607   3.987459   -2.720411 C.2        1 UNL1     0.0115
     6 C         10.909634   3.362607   -3.586689 C.3        1 UNL1     -0.0348
     7 C         9.876482   5.471006   -3.326279 C.2        1 UNL1     0.2441
     8 O         10.700342   6.292631   -2.948504 O.2        1 UNL1     -0.2702
     9 N         9.125841   5.678367   -4.496617 N.am        1 UNL1     -0.2772
     10 C         7.843159   6.064677   -4.182268 C.2        1 UNL1     0.1049
     11 C         6.997643   5.092981   -3.890496 C.2        1 UNL1     0.0801
     12 C         6.544942   7.67046   -2.770382 C.ar        1 UNL1     0.0753
     13 C         5.786232   6.542208   -2.323152 C.ar        1 UNL1     0.0305
     14 C         5.903185   5.236819   -2.969165 C.2        1 UNL1     0.0924
     15 N         7.120448   3.764097   -4.050223 N.pl3        1 UNL1     -0.3170
     16 C         5.850799   3.164559   -3.735902 C.3        1 UNL1     0.1275
     17 N         5.214549   4.119238   -2.755342 N.2        1 UNL1     -0.2557
     18 C         4.997527   3.224045   -4.999266 C.3        1 UNL1     0.0016
     19 C         5.752161   2.540596   -6.128432 C.3        1 UNL1     0.0026
     20 N         6.022675   1.162369   -5.743282 N.3        1 UNL1     -0.3018
     21 C         6.786466   1.001554   -4.504278 C.3        1 UNL1     0.0026
     22 C         6.007964   1.69143   -3.382716 C.3        1 UNL1     0.0016
     23 C         6.466965   0.34341   -6.853487 C.3        1 UNL1     0.0012
     24 C         5.311243   0.09417   -7.835293 C.3        1 UNL1     -0.0339
     25 C         5.346389   1.086852   -9.008921 C.3        1 UNL1     -0.0615
     26 C         5.340443   -1.345105   -8.319457 C.3        1 UNL1     -0.0615
     27 C         6.340232   8.937875   -2.23013 C.ar        1 UNL1     0.1347
     28 C         5.38144   9.206821   -1.269694 C.ar        1 UNL1     0.0342
     29 C         4.680232   8.072039   -0.80954 C.ar        1 UNL1     0.1435
     30 C         4.899738   6.790278   -1.315628 C.ar        1 UNL1     0.0774
     31 O         3.639501   8.185038   0.044344 O.3        1 UNL1     -0.4436
     32 C         2.917997   6.952153   -0.09813 C.3        1 UNL1     0.3143
     33 C         3.931295   5.959466   -0.631058 C.2        1 UNL1     0.2504
     34 C         4.934504   10.572648   -0.82826 C.3        1 UNL1     -0.0327
     35 O         2.557875   6.514801   1.218034 O.2        1 UNL1     -0.4528
     36 C         -0.684959   4.582214   0.821519 C.3        1 UNL1     0.0854
     37 C         -0.990339   3.321974   -0.07629 C.3        1 UNL1     0.0236
     38 C         -1.590407   2.060473   0.711288 C.3        1 UNL1     0.1131
     39 C         -0.864119   1.529092   2.012215 C.3        1 UNL1     0.0200
     40 C         0.797113   1.383824   2.052762 C.3        1 UNL1     0.0661
     41 C         1.756227   0.615682   0.883289 C.3        1 UNL1     0.0091
     42 C         3.463561   0.978792   0.318873 C.3        1 UNL1     0.0661
     43 C         7.494645   7.463422   -3.891746 C.2        1 UNL1     0.2131
     44 O         7.894127   8.361888   -4.610015 O.2        1 UNL1     -0.2851
     45 O         7.152161   9.973329   -2.688436 O.3        1 UNL1     -0.5056
     46 O         3.947542   4.755877   -0.500815 O.2        1 UNL1     -0.2836
     47 C         5.563938   1.319456   1.928275 C.3        1 UNL1     -0.0566
     48 O         3.912402   -0.432269   0.399889 O.3        1 UNL1     -0.3909
     49 C         0.921663   0.383487   -0.356502 C.3        1 UNL1     -0.0577
     50 O         1.397228   2.601621   2.445898 O.3        1 UNL1     -0.3910
     51 O         -0.808544   4.391909   2.2129 O.3        1 UNL1     -0.3753
     52 C         0.053755   3.162191   -1.229237 C.3        1 UNL1     -0.0564
     53 O         -2.19313   1.021776   -0.1888 O.3        1 UNL1     -0.4608
     54 C         -2.427195   -0.285165   0.150388 C.2        1 UNL1     0.3042
     55 O         -1.858068   -1.284004   -0.288081 O.2        1 UNL1     -0.2512
     56 C         -3.466821   -0.45146   1.221946 C.3        1 UNL1     0.0332
     57 C         -1.584838   2.197409   3.273995 C.3        1 UNL1     -0.0567
     58 C         1.842391   7.197525   -1.181825 C.3        1 UNL1     0.0210
     59 C         -1.152619   5.564167   2.949982 C.3        1 UNL1     0.0372
     60 C         0.643848   5.211631   0.590725 C.2        1 UNL1     -0.0208
     61 C         1.557003   5.646648   1.460008 C.2        1 UNL1     0.0882
     62 H         4.690953   2.733545   0.57825 H        1 UNL1     0.0365
     63 H         6.336886   3.609951   -0.254245 H        1 UNL1     0.0576
     64 H         8.342708   1.491913   -1.247908 H        1 UNL1     0.0615
     65 H         8.274816   4.60937   -1.434222 H        1 UNL1     0.0622
     66 H         -1.429846   5.328745   0.511873 H        1 UNL1     0.0645
     67 H         -1.85615   3.631451   -0.687154 H        1 UNL1     0.0362
     68 H         -2.537433   2.497032   1.063538 H        1 UNL1     0.0741
     69 H         -1.195398   0.517852   2.207294 H        1 UNL1     0.0359
     70 H         0.909306   0.723134   2.933649 H        1 UNL1     0.0600
     71 H         1.800134   -0.405659   1.309777 H        1 UNL1     0.0348
     72 H         3.35793   1.466558   1.298793 H        1 UNL1     0.0602
     73 H         0.761353   5.409346   -0.445784 H        1 UNL1     0.0628
     74 H         1.539862   5.435522   2.529761 H        1 UNL1     0.1022
     75 H         10.95436   2.257271   -3.434161 H        1 UNL1     0.0279
     76 H         10.795615   3.445839   -4.665179 H        1 UNL1     0.0279
     77 H         11.914768   3.667347   -3.260285 H        1 UNL1     0.0279
     78 H         9.063811   4.808632   -5.021775 H        1 UNL1     0.1553
     79 H         7.78558   3.336486   -4.668027 H        1 UNL1     0.1484
     80 H         4.036398   2.732862   -4.80501 H        1 UNL1     0.0317
     81 H         4.770645   4.260875   -5.269748 H        1 UNL1     0.0317
     82 H         6.682645   3.072166   -6.376513 H        1 UNL1     0.0428
     83 H         5.12669   2.596012   -7.019929 H        1 UNL1     0.0428
     84 H         6.907074   -0.041509   -4.195595 H        1 UNL1     0.0428
     85 H         7.816458   1.36981   -4.608295 H        1 UNL1     0.0428
     86 H         6.524745   1.44077   -2.47492 H        1 UNL1     0.0317
     87 H         5.028645   1.21357   -3.257492 H        1 UNL1     0.0317
     88 H         7.262751   0.88557   -7.380821 H        1 UNL1     0.0429
     89 H         6.899845   -0.602436   -6.503113 H        1 UNL1     0.0429
     90 H         4.358372   0.212854   -7.305986 H        1 UNL1     0.0308
     91 H         6.297009   1.032086   -9.547832 H        1 UNL1     0.0233
     92 H         4.5276   0.890957   -9.70521 H        1 UNL1     0.0233
     93 H         5.226359   2.126331   -8.680422 H        1 UNL1     0.0233
     94 H         4.644536   -1.476702   -9.155061 H        1 UNL1     0.0233
     95 H         6.343484   -1.600202   -8.67272 H        1 UNL1     0.0233
     96 H         5.059405   -2.039827   -7.522998 H        1 UNL1     0.0233
     97 H         4.14143   10.522417   -0.088165 H        1 UNL1     0.0280
     98 H         5.747318   11.142635   -0.359534 H        1 UNL1     0.0280
     99 H         4.560425   11.137484   -1.697812 H        1 UNL1     0.0280
     100 H         6.684888   10.723994   -3.010585 H        1 UNL1     0.2922
     101 H         4.701377   0.885453   2.433532 H        1 UNL1     0.0236
     102 H         6.014779   2.124636   2.507423 H        1 UNL1     0.0236
     103 H         6.320328   0.51692   1.926575 H        1 UNL1     0.0236
     104 H         4.332261   -0.558552   1.27324 H        1 UNL1     0.2098
     105 H         0.708659   1.282522   -0.929369 H        1 UNL1     0.0234
     106 H         1.290963   -0.404194   -1.013087 H        1 UNL1     0.0234
     107 H         0.0   -0.0   0.0 H        1 UNL1     0.0234
     108 H         1.19892   3.259946   1.75232 H        1 UNL1     0.2098
     109 H         1.078742   3.048737   -0.849446 H        1 UNL1     0.0234
     110 H         -0.178777   2.335335   -1.908929 H        1 UNL1     0.0234
     111 H         0.074564   4.045282   -1.881666 H        1 UNL1     0.0234
     112 H         -3.599059   -1.513336   1.450591 H        1 UNL1     0.0342
     113 H         -3.223391   0.114219   2.120051 H        1 UNL1     0.0342
     114 H         -4.421623   -0.06862   0.836002 H        1 UNL1     0.0342
     115 H         -2.654405   1.948928   3.312368 H        1 UNL1     0.0234
     116 H         -1.147996   1.917324   4.234605 H        1 UNL1     0.0234
     117 H         -1.623648   3.299279   3.225842 H        1 UNL1     0.0234
     118 H         0.941375   7.684098   -0.769003 H        1 UNL1     0.0309
     119 H         2.211361   7.785928   -2.027901 H        1 UNL1     0.0309
     120 H         1.453838   6.265675   -1.607015 H        1 UNL1     0.0309
     121 H         -0.348564   6.286923   2.81406 H        1 UNL1     0.0524
     122 H         -2.08299   6.030004   2.584681 H        1 UNL1     0.0524
     123 H         -1.267895   5.325411   4.003453 H        1 UNL1     0.0524
@<TRIPOS>BOND
     1     1     2    1
     2     1    42    1
     3     2     3    2
     4     3     4    1
     5     4     5    2
     6     5     7    1
     7     6    75    1
     8     6    76    1
     9     6    77    1
    10     7     9   am
    11     9    10    1
    12    10    11    2
    13    10    43    1
    14    11    14    1
    15    11    15    1
    16    12    13   ar
    17    12    27   ar
    18    12    43    1
    19    13    14    1
    20    13    30   ar
    21    14    17    2
    22    15    16    1
    23    16    17    1
    24    16    18    1
    25    16    22    1
    26    18    19    1
    27    19    20    1
    28    20    21    1
    29    21    22    1
    30    23    24    1
    31    23    88    1
    32    23    89    1
    33    24    25    1
    34    24    26    1
    35    24    90    1
    36    25    91    1
    37    25    92    1
    38    25    93    1
    39    26    94    1
    40    26    95    1
    41    26    96    1
    42    27    28   ar
    43    28    29   ar
    44    29    30   ar
    45    29    31    1
    46    30    33    1
    47    31    32    1
    48    32    33    1
    49    32    35    1
    50    34    97    1
    51    34    98    1
    52    34    99    1
    53    35    61    1
    54    36    37    1
    55    36    60    1
    56    37    38    1
    57    38    39    1
    58    39    40    1
    59    40    41    1
    60    41    42    1
    61    45   100    1
    62    47   101    1
    63    47   102    1
    64    47   103    1
    65    48   104    1
    66    49   105    1
    67    49   106    1
    68    49   107    1
    69    50   108    1
    70    51    59    1
    71    52   109    1
    72    52   110    1
    73    52   111    1
    74    53    54    1
    75    54    55    2
    76    54    56    1
    77    56   112    1
    78    56   113    1
    79    56   114    1
    80    57   115    1
    81    57   116    1
    82    57   117    1
    83    58   118    1
    84    58   119    1
    85    58   120    1
    86    59   121    1
    87    59   122    1
    88    59   123    1
    89    60    61    2
    90     1    47    1
    91     1    62    1
    92     2    63    1
    93     3    64    1
    94     4    65    1
    95     5     6    1
    96     7     8    2
    97     9    78    1
    98    15    79    1
    99    18    80    1
   100    18    81    1
   101    19    82    1
   102    19    83    1
   103    20    23    1
   104    21    84    1
   105    21    85    1
   106    22    86    1
   107    22    87    1
   108    27    45    1
   109    28    34    1
   110    32    58    1
   111    33    46    2
   112    36    51    1
   113    36    66    1
   114    37    52    1
   115    37    67    1
   116    38    53    1
   117    38    68    1
   118    42    48    1
   119    42    72    1
   120    43    44    2
   121    60    73    1
   122    61    74    1
   123    39    69    1
   124    39    57    1
   125    40    70    1
   126    40    50    1
   127    41    71    1
   128    41    49    1
