@<TRIPOS>MOLECULE
*****
 123 128 0 0 0
SMALL
GASTEIGER

@<TRIPOS>ATOM
     1 C         5.167986   1.747664   0.486681 C.3        1 UNL1     0.0009
     2 C         6.60424   2.553053   -0.365117 C.2        1 UNL1     -0.0787
     3 C         7.885592   2.454262   -1.031769 C.2        1 UNL1     -0.0649
     4 C         8.762788   3.688848   -1.788526 C.2        1 UNL1     -0.0542
     5 C         9.782182   3.980844   -2.728022 C.2        1 UNL1     0.0115
     6 C         10.909567   3.354752   -3.59424 C.3        1 UNL1     -0.0348
     7 C         9.877445   5.463825   -3.335212 C.2        1 UNL1     0.2441
     8 O         10.701824   6.285416   -2.958498 O.2        1 UNL1     -0.2702
     9 N         9.126395   5.670502   -4.505408 N.am        1 UNL1     -0.2772
     10 C         7.844016   6.057642   -4.190847 C.2        1 UNL1     0.1049
     11 C         6.998201   5.086568   -3.897875 C.2        1 UNL1     0.0801
     12 C         6.5471   7.665211   -2.779796 C.ar        1 UNL1     0.0753
     13 C         5.78809   6.537676   -2.331269 C.ar        1 UNL1     0.0305
     14 C         5.904199   5.231678   -2.976203 C.2        1 UNL1     0.0924
     15 N         7.120359   3.757493   -4.056507 N.pl3        1 UNL1     -0.3170
     16 C         5.850583   3.15878   -3.741127 C.3        1 UNL1     0.1275
     17 N         5.215167   4.114583   -2.761122 N.2        1 UNL1     -0.2557
     18 C         4.996798   3.217547   -5.004179 C.3        1 UNL1     0.0016
     19 C         5.750653   2.532794   -6.133075 C.3        1 UNL1     0.0026
     20 N         6.020731   1.154783   -5.746849 N.3        1 UNL1     -0.3018
     21 C         6.78498   0.994705   -4.508032 C.3        1 UNL1     0.0026
     22 C         6.007257   1.685889   -3.386736 C.3        1 UNL1     0.0016
     23 C         6.464191   0.334672   -6.856536 C.3        1 UNL1     0.0012
     24 C         5.307942   0.085087   -7.837633 C.3        1 UNL1     -0.0339
     25 C         5.382889   1.030979   -9.047479 C.3        1 UNL1     -0.0615
     26 C         5.294554   -1.371702   -8.267012 C.3        1 UNL1     -0.0615
     27 C         6.343173   8.933181   -2.240552 C.ar        1 UNL1     0.1347
     28 C         5.384908   9.203374   -1.27994 C.ar        1 UNL1     0.0342
     29 C         4.683402   8.069296   -0.818507 C.ar        1 UNL1     0.1435
     30 C         4.902134   6.787002   -1.323582 C.ar        1 UNL1     0.0774
     31 O         3.643085   8.183486   0.035722 O.3        1 UNL1     -0.4436
     32 C         2.920982   6.950793   -0.105379 C.3        1 UNL1     0.3143
     33 C         3.933621   5.957204   -0.637881 C.2        1 UNL1     0.2504
     34 C         4.938755   10.569777   -0.839496 C.3        1 UNL1     -0.0327
     35 O         2.561231   6.514735   1.211315 O.2        1 UNL1     -0.4528
     36 C         -0.682613   4.58322   0.817851 C.3        1 UNL1     0.0854
     37 C         -0.988924   3.322338   -0.078738 C.3        1 UNL1     0.0236
     38 C         -1.589206   2.06178   0.710185 C.3        1 UNL1     0.1131
     39 C         -0.862595   1.531206   2.011261 C.3        1 UNL1     0.0200
     40 C         0.79859   1.385249   2.051226 C.3        1 UNL1     0.0661
     41 C         1.756872   0.615679   0.882009 C.3        1 UNL1     0.0091
     42 C         3.464122   0.977558   0.316552 C.3        1 UNL1     0.0661
     43 C         7.496235   7.45679   -3.901385 C.2        1 UNL1     0.2131
     44 O         7.895802   8.354461   -4.620601 O.2        1 UNL1     -0.2851
     45 O         7.155357   9.967884   -2.700098 O.3        1 UNL1     -0.5056
     46 O         3.949399   4.753721   -0.506605 O.2        1 UNL1     -0.2836
     47 C         5.565334   1.318696   1.924764 C.3        1 UNL1     -0.0566
     48 O         3.912384   -0.433629   0.398596 O.3        1 UNL1     -0.3909
     49 C         0.921678   0.382777   -0.357226 C.3        1 UNL1     -0.0577
     50 O         1.399404   2.603124   2.443054 O.3        1 UNL1     -0.3910
     51 O         -0.805687   4.394171   2.209449 O.3        1 UNL1     -0.3753
     52 C         0.054608   3.161104   -1.231991 C.3        1 UNL1     -0.0564
     53 O         -2.192765   1.022568   -0.188748 O.3        1 UNL1     -0.4608
     54 C         -2.427254   -0.283977   0.151668 C.2        1 UNL1     0.3042
     55 O         -1.85773   -1.283341   -0.285085 O.2        1 UNL1     -0.2512
     56 C         -3.468   -0.449008   1.222335 C.3        1 UNL1     0.0332
     57 C         -1.582485   2.200927   3.272771 C.3        1 UNL1     -0.0567
     58 C         1.845022   7.195698   -1.188827 C.3        1 UNL1     0.0210
     59 C         -1.118012   5.573575   2.949263 C.3        1 UNL1     0.0372
     60 C         0.64637   5.211858   0.585947 C.2        1 UNL1     -0.0208
     61 C         1.560084   5.647228   1.454466 C.2        1 UNL1     0.0882
     62 H         4.692389   2.731999   0.57389 H        1 UNL1     0.0365
     63 H         6.338348   3.606967   -0.260063 H        1 UNL1     0.0576
     64 H         8.342824   1.487198   -1.25275 H        1 UNL1     0.0615
     65 H         8.27621   4.604521   -1.441729 H        1 UNL1     0.0622
     66 H         -1.427306   5.329808   0.507878 H        1 UNL1     0.0645
     67 H         -1.854861   3.631665   -0.6895 H        1 UNL1     0.0362
     68 H         -2.535891   2.499056   1.062461 H        1 UNL1     0.0741
     69 H         -1.194231   0.520279   2.207355 H        1 UNL1     0.0359
     70 H         0.910871   0.725271   2.932636 H        1 UNL1     0.0600
     71 H         1.800516   -0.405312   1.30936 H        1 UNL1     0.0348
     72 H         3.359122   1.466215   1.296095 H        1 UNL1     0.0602
     73 H         0.763519   5.408627   -0.450781 H        1 UNL1     0.0628
     74 H         1.543307   5.437033   2.524407 H        1 UNL1     0.1022
     75 H         10.935247   2.246133   -3.462568 H        1 UNL1     0.0279
     76 H         10.80857   3.460365   -4.672069 H        1 UNL1     0.0279
     77 H         11.915772   3.637151   -3.251454 H        1 UNL1     0.0279
     78 H         9.063762   4.800341   -5.029788 H        1 UNL1     0.1553
     79 H         7.785041   3.329058   -4.674224 H        1 UNL1     0.1484
     80 H         4.035538   2.72695   -4.809088 H        1 UNL1     0.0317
     81 H         4.770253   4.254242   -5.275459 H        1 UNL1     0.0317
     82 H         6.681263   3.063744   -6.382011 H        1 UNL1     0.0428
     83 H         5.124827   2.587712   -7.024352 H        1 UNL1     0.0428
     84 H         6.905265   -0.048144   -4.1985 H        1 UNL1     0.0428
     85 H         7.815089   1.362421   -4.612806 H        1 UNL1     0.0428
     86 H         6.524316   1.435787   -2.478943 H        1 UNL1     0.0317
     87 H         5.027784   1.208564   -3.260681 H        1 UNL1     0.0317
     88 H         7.259988   0.876028   -7.384677 H        1 UNL1     0.0429
     89 H         6.896809   -0.611061   -6.505529 H        1 UNL1     0.0429
     90 H         4.355696   0.253819   -7.320942 H        1 UNL1     0.0308
     91 H         6.337479   0.93024   -9.572564 H        1 UNL1     0.0233
     92 H         4.566701   0.830679   -9.745567 H        1 UNL1     0.0233
     93 H         5.28764   2.085076   -8.760001 H        1 UNL1     0.0233
     94 H         4.601785   -1.512501   -9.103721 H        1 UNL1     0.0233
     95 H         6.291732   -1.672034   -8.600775 H        1 UNL1     0.0233
     96 H         4.984482   -2.026367   -7.447721 H        1 UNL1     0.0233
     97 H         4.139676   10.520664   -0.105812 H        1 UNL1     0.0280
     98 H         5.7496   11.136335   -0.363264 H        1 UNL1     0.0280
     99 H         4.57336   11.137399   -1.710924 H        1 UNL1     0.0280
     100 H         6.688287   10.718999   -3.021493 H        1 UNL1     0.2922
     101 H         4.699663   0.896924   2.435035 H        1 UNL1     0.0236
     102 H         6.027863   2.120794   2.498949 H        1 UNL1     0.0236
     103 H         6.312194   0.507282   1.923422 H        1 UNL1     0.0236
     104 H         4.327181   -0.560913   1.274217 H        1 UNL1     0.2098
     105 H         0.708822   1.28141   -0.930779 H        1 UNL1     0.0234
     106 H         1.290354   -0.405631   -1.013288 H        1 UNL1     0.0234
     107 H         0.0   -0.0   0.0 H        1 UNL1     0.0234
     108 H         1.215505   3.256448   1.740831 H        1 UNL1     0.2098
     109 H         1.08116   3.059922   -0.852958 H        1 UNL1     0.0234
     110 H         -0.171906   2.326152   -1.903772 H        1 UNL1     0.0234
     111 H         0.066729   4.038392   -1.892419 H        1 UNL1     0.0234
     112 H         -3.592548   -1.509851   1.459919 H        1 UNL1     0.0342
     113 H         -3.230993   0.126318   2.116018 H        1 UNL1     0.0342
     114 H         -4.424851   -0.076943   0.830967 H        1 UNL1     0.0342
     115 H         -2.652143   1.952945   3.311814 H        1 UNL1     0.0234
     116 H         -1.145355   1.921481   4.233436 H        1 UNL1     0.0234
     117 H         -1.620836   3.302771   3.223682 H        1 UNL1     0.0234
     118 H         0.94377   7.681611   -0.775741 H        1 UNL1     0.0309
     119 H         2.213461   7.784508   -2.034852 H        1 UNL1     0.0309
     120 H         1.456986   6.263686   -1.614136 H        1 UNL1     0.0309
     121 H         -0.27988   6.261618   2.84208 H        1 UNL1     0.0524
     122 H         -2.017076   6.083063   2.56437 H        1 UNL1     0.0524
     123 H         -1.271786   5.330454   3.996803 H        1 UNL1     0.0524
@<TRIPOS>BOND
     1     1     2    1
     2     1    42    1
     3     2     3    2
     4     3     4    1
     5     4     5    2
     6     5     7    1
     7     6    75    1
     8     6    76    1
     9     6    77    1
    10     7     9   am
    11     9    10    1
    12    10    11    2
    13    10    43    1
    14    11    14    1
    15    11    15    1
    16    12    13   ar
    17    12    27   ar
    18    12    43    1
    19    13    14    1
    20    13    30   ar
    21    14    17    2
    22    15    16    1
    23    16    17    1
    24    16    18    1
    25    16    22    1
    26    18    19    1
    27    19    20    1
    28    20    21    1
    29    21    22    1
    30    23    24    1
    31    23    88    1
    32    23    89    1
    33    24    25    1
    34    24    26    1
    35    24    90    1
    36    25    91    1
    37    25    92    1
    38    25    93    1
    39    26    94    1
    40    26    95    1
    41    26    96    1
    42    27    28   ar
    43    28    29   ar
    44    29    30   ar
    45    29    31    1
    46    30    33    1
    47    31    32    1
    48    32    33    1
    49    32    35    1
    50    34    97    1
    51    34    98    1
    52    34    99    1
    53    35    61    1
    54    36    37    1
    55    36    60    1
    56    37    38    1
    57    38    39    1
    58    39    40    1
    59    40    41    1
    60    41    42    1
    61    45   100    1
    62    47   101    1
    63    47   102    1
    64    47   103    1
    65    48   104    1
    66    49   105    1
    67    49   106    1
    68    49   107    1
    69    50   108    1
    70    51    59    1
    71    52   109    1
    72    52   110    1
    73    52   111    1
    74    53    54    1
    75    54    55    2
    76    54    56    1
    77    56   112    1
    78    56   113    1
    79    56   114    1
    80    57   115    1
    81    57   116    1
    82    57   117    1
    83    58   118    1
    84    58   119    1
    85    58   120    1
    86    59   121    1
    87    59   122    1
    88    59   123    1
    89    60    61    2
    90     1    47    1
    91     1    62    1
    92     2    63    1
    93     3    64    1
    94     4    65    1
    95     5     6    1
    96     7     8    2
    97     9    78    1
    98    15    79    1
    99    18    80    1
   100    18    81    1
   101    19    82    1
   102    19    83    1
   103    20    23    1
   104    21    84    1
   105    21    85    1
   106    22    86    1
   107    22    87    1
   108    27    45    1
   109    28    34    1
   110    32    58    1
   111    33    46    2
   112    36    51    1
   113    36    66    1
   114    37    52    1
   115    37    67    1
   116    38    53    1
   117    38    68    1
   118    42    48    1
   119    42    72    1
   120    43    44    2
   121    60    73    1
   122    61    74    1
   123    39    69    1
   124    39    57    1
   125    40    70    1
   126    40    50    1
   127    41    71    1
   128    41    49    1
