@<TRIPOS>MOLECULE
*****
 123 128 0 0 0
SMALL
GASTEIGER

@<TRIPOS>ATOM
     1 C         3.786601   -2.229454   -2.340076 C.3        1 UNL1     0.0009
     2 C         4.119173   -2.817904   -4.06639 C.2        1 UNL1     -0.0787
     3 C         4.379915   -3.895124   -4.997871 C.2        1 UNL1     -0.0649
     4 C         4.498017   -3.806659   -6.68446 C.2        1 UNL1     -0.0542
     5 C         4.437254   -4.543675   -7.892845 C.2        1 UNL1     0.0115
     6 C         4.378316   -5.977062   -8.488874 C.3        1 UNL1     -0.0348
     7 C         4.221653   -3.754572   -9.274084 C.2        1 UNL1     0.2441
     8 O         5.131502   -3.527227   -10.059587 O.2        1 UNL1     -0.2702
     9 N         2.877927   -3.571558   -9.6443 N.am        1 UNL1     -0.2772
     10 C         2.381693   -2.412367   -9.093527 C.2        1 UNL1     0.1049
     11 C         1.958186   -2.495821   -7.845369 C.2        1 UNL1     0.0801
     12 C         2.888604   0.019497   -8.799566 C.ar        1 UNL1     0.0753
     13 C         2.618582   -0.172845   -7.407193 C.ar        1 UNL1     0.0305
     14 C         2.017   -1.407266   -6.907838 C.2        1 UNL1     0.0924
     15 N         1.734436   -3.577515   -7.0796 N.pl3        1 UNL1     -0.3170
     16 C         1.115977   -3.131711   -5.859345 C.3        1 UNL1     0.1275
     17 N         1.610502   -1.717146   -5.67997 N.2        1 UNL1     -0.2557
     18 C         -0.382771   -3.025955   -6.124429 C.3        1 UNL1     0.0016
     19 C         -0.883751   -4.370438   -6.627396 C.3        1 UNL1     0.0026
     20 N         -0.600119   -5.382302   -5.619074 N.3        1 UNL1     -0.3018
     21 C         0.811147   -5.515471   -5.2517 C.3        1 UNL1     0.0026
     22 C         1.292353   -4.15475   -4.74497 C.3        1 UNL1     0.0016
     23 C         -1.295716   -6.630512   -5.86148 C.3        1 UNL1     0.0012
     24 C         -2.789677   -6.374195   -6.114738 C.3        1 UNL1     -0.0339
     25 C         -3.141152   -6.522707   -7.604189 C.3        1 UNL1     -0.0615
     26 C         -3.630386   -7.294992   -5.247489 C.3        1 UNL1     -0.0615
     27 C         3.348976   1.24184   -9.283354 C.ar        1 UNL1     0.1347
     28 C         3.538343   2.352319   -8.480217 C.ar        1 UNL1     0.0342
     29 C         3.312956   2.125347   -7.105864 C.ar        1 UNL1     0.1435
     30 C         2.886323   0.896002   -6.601963 C.ar        1 UNL1     0.0774
     31 O         3.3485   3.135541   -6.209621 O.3        1 UNL1     -0.4436
     32 C         2.630032   2.636095   -5.071539 C.3        1 UNL1     0.3143
     33 C         2.710392   1.127038   -5.183359 C.2        1 UNL1     0.2504
     34 C         3.785629   3.755497   -8.959844 C.3        1 UNL1     -0.0327
     35 O         3.371383   3.007911   -3.903034 O.2        1 UNL1     -0.4528
     36 C         0.808148   3.432531   -1.135795 C.3        1 UNL1     0.0854
     37 C         -0.243353   2.394622   -0.583877 C.3        1 UNL1     0.0236
     38 C         -0.169034   2.132703   0.996509 C.3        1 UNL1     0.1131
     39 C         1.218191   1.778905   1.669342 C.3        1 UNL1     0.0200
     40 C         2.255144   0.691026   0.945681 C.3        1 UNL1     0.0661
     41 C         1.837828   -0.8513   0.375868 C.3        1 UNL1     0.0091
     42 C         2.500966   -1.818346   -1.034973 C.3        1 UNL1     0.0661
     43 C         2.57694   -1.098485   -9.724358 C.2        1 UNL1     0.2131
     44 O         2.384715   -0.95117   -10.917708 O.2        1 UNL1     -0.2851
     45 O         3.630969   1.331844   -10.644904 O.3        1 UNL1     -0.5056
     46 O         2.662465   0.302248   -4.29833 O.2        1 UNL1     -0.2836
     47 C         5.090323   -2.264046   -1.498 C.3        1 UNL1     -0.0566
     48 O         2.654266   -3.069113   -0.253182 O.3        1 UNL1     -0.3909
     49 C         0.330375   -0.957147   0.313594 C.3        1 UNL1     -0.0577
     50 O         3.091241   1.341831   0.010204 O.3        1 UNL1     -0.3910
     51 O         1.786401   3.865769   -0.217778 O.3        1 UNL1     -0.3753
     52 C         -0.515057   1.242494   -1.605506 C.3        1 UNL1     -0.0564
     53 O         -1.376442   1.431228   1.546442 O.3        1 UNL1     -0.4608
     54 C         -2.400785   2.030463   2.231692 C.2        1 UNL1     0.3042
     55 O         -3.541759   2.250555   1.827246 O.2        1 UNL1     -0.2512
     56 C         -2.049316   2.386889   3.648076 C.3        1 UNL1     0.0332
     57 C         1.840992   3.139372   2.234517 C.3        1 UNL1     -0.0567
     58 C         1.158114   3.07244   -5.257518 C.3        1 UNL1     0.0210
     59 C         1.271474   4.36633   1.015168 C.3        1 UNL1     0.0372
     60 C         1.531855   3.002285   -2.363108 C.2        1 UNL1     -0.0208
     61 C         2.827088   3.0742   -2.672857 C.2        1 UNL1     0.0882
     62 H         3.69113   -1.20783   -2.727222 H        1 UNL1     0.0365
     63 H         4.176195   -1.866028   -4.598509 H        1 UNL1     0.0576
     64 H         4.36259   -4.940909   -4.683004 H        1 UNL1     0.0615
     65 H         4.587997   -2.735331   -6.883567 H        1 UNL1     0.0622
     66 H         0.207046   4.30426   -1.430433 H        1 UNL1     0.0645
     67 H         -1.210509   2.919037   -0.674191 H        1 UNL1     0.0362
     68 H         -0.422181   3.139626   1.361946 H        1 UNL1     0.0741
     69 H         1.031624   1.3237   2.632871 H        1 UNL1     0.0359
     70 H         2.920575   0.464252   1.80057 H        1 UNL1     0.0600
     71 H         2.060907   -1.456856   1.276142 H        1 UNL1     0.0348
     72 H         3.260607   -1.057052   -0.805425 H        1 UNL1     0.0602
     73 H         0.826189   2.704297   -3.098286 H        1 UNL1     0.0628
     74 H         3.618683   3.314106   -1.962182 H        1 UNL1     0.1022
     75 H         3.898234   -5.962979   -9.497019 H        1 UNL1     0.0279
     76 H         5.332715   -6.458207   -8.690598 H        1 UNL1     0.0279
     77 H         3.698664   -6.640596   -7.934349 H        1 UNL1     0.0279
     78 H         2.317274   -4.343619   -9.289805 H        1 UNL1     0.1553
     79 H         1.608833   -4.50313   -7.446196 H        1 UNL1     0.1484
     80 H         -0.889776   -2.730744   -5.197842 H        1 UNL1     0.0317
     81 H         -0.595617   -2.243833   -6.861066 H        1 UNL1     0.0317
     82 H         -0.432077   -4.637485   -7.594137 H        1 UNL1     0.0428
     83 H         -1.953978   -4.272157   -6.811798 H        1 UNL1     0.0428
     84 H         0.987258   -6.224591   -4.436872 H        1 UNL1     0.0428
     85 H         1.414407   -5.907928   -6.081983 H        1 UNL1     0.0428
     86 H         2.282392   -4.321643   -4.362927 H        1 UNL1     0.0317
     87 H         0.722324   -3.863639   -3.85423 H        1 UNL1     0.0317
     88 H         -0.863665   -7.093711   -6.758182 H        1 UNL1     0.0429
     89 H         -1.149792   -7.33572   -5.033131 H        1 UNL1     0.0429
     90 H         -3.038015   -5.354485   -5.797353 H        1 UNL1     0.0308
     91 H         -4.203424   -6.745707   -7.741855 H        1 UNL1     0.0233
     92 H         -2.892028   -5.611245   -8.152625 H        1 UNL1     0.0233
     93 H         -2.580914   -7.332718   -8.086737 H        1 UNL1     0.0233
     94 H         -3.321173   -7.213571   -4.199827 H        1 UNL1     0.0233
     95 H         -4.684068   -7.00923   -5.311174 H        1 UNL1     0.0233
     96 H         -3.528314   -8.338664   -5.557808 H        1 UNL1     0.0233
     97 H         2.875823   4.348232   -8.971979 H        1 UNL1     0.0280
     98 H         4.48809   4.296397   -8.312362 H        1 UNL1     0.0280
     99 H         4.194497   3.729043   -9.983183 H        1 UNL1     0.0280
     100 H         3.731327   0.503217   -11.079562 H        1 UNL1     0.2922
     101 H         5.793931   -2.970103   -1.938539 H        1 UNL1     0.0236
     102 H         4.913521   -2.467601   -0.442401 H        1 UNL1     0.0236
     103 H         5.618753   -1.296196   -1.512894 H        1 UNL1     0.0236
     104 H         3.281385   -2.88747   0.473935 H        1 UNL1     0.2098
     105 H         -0.039385   -1.687579   -0.401638 H        1 UNL1     0.0234
     106 H         -0.156802   -1.093584   1.27898 H        1 UNL1     0.0234
     107 H         -0.0   0.0   0.0 H        1 UNL1     0.0234
     108 H         4.014658   1.170201   0.277811 H        1 UNL1     0.2098
     109 H         -1.401343   1.436777   -2.225558 H        1 UNL1     0.0234
     110 H         0.343672   1.028009   -2.250737 H        1 UNL1     0.0234
     111 H         -0.711011   0.288878   -1.097406 H        1 UNL1     0.0234
     112 H         -0.97322   2.266775   3.805989 H        1 UNL1     0.0342
     113 H         -2.372607   3.393391   3.909383 H        1 UNL1     0.0342
     114 H         -2.568108   1.686456   4.316966 H        1 UNL1     0.0342
     115 H         1.792802   3.949331   1.493686 H        1 UNL1     0.0234
     116 H         1.363484   3.500606   3.147505 H        1 UNL1     0.0234
     117 H         2.927761   3.082814   2.418027 H        1 UNL1     0.0234
     118 H         0.541944   2.272761   -5.704569 H        1 UNL1     0.0309
     119 H         0.688854   3.408552   -4.327449 H        1 UNL1     0.0309
     120 H         1.051503   3.900072   -5.967282 H        1 UNL1     0.0309
     121 H         0.954925   5.395305   0.846752 H        1 UNL1     0.0524
     122 H         0.390535   3.800408   1.361169 H        1 UNL1     0.0524
     123 H         2.037664   4.33101   1.784453 H        1 UNL1     0.0524
@<TRIPOS>BOND
     1     1     2    1
     2     1    42    1
     3     2     3    2
     4     3     4    1
     5     4     5    2
     6     5     7    1
     7     6    75    1
     8     6    76    1
     9     6    77    1
    10     7     9   am
    11     9    10    1
    12    10    11    2
    13    10    43    1
    14    11    14    1
    15    11    15    1
    16    12    13   ar
    17    12    27   ar
    18    12    43    1
    19    13    14    1
    20    13    30   ar
    21    14    17    2
    22    15    16    1
    23    16    17    1
    24    16    18    1
    25    16    22    1
    26    18    19    1
    27    19    20    1
    28    20    21    1
    29    21    22    1
    30    23    24    1
    31    23    88    1
    32    23    89    1
    33    24    25    1
    34    24    26    1
    35    24    90    1
    36    25    91    1
    37    25    92    1
    38    25    93    1
    39    26    94    1
    40    26    95    1
    41    26    96    1
    42    27    28   ar
    43    28    29   ar
    44    29    30   ar
    45    29    31    1
    46    30    33    1
    47    31    32    1
    48    32    33    1
    49    32    35    1
    50    34    97    1
    51    34    98    1
    52    34    99    1
    53    35    61    1
    54    36    37    1
    55    36    60    1
    56    37    38    1
    57    38    39    1
    58    39    40    1
    59    40    41    1
    60    41    42    1
    61    45   100    1
    62    47   101    1
    63    47   102    1
    64    47   103    1
    65    48   104    1
    66    49   105    1
    67    49   106    1
    68    49   107    1
    69    50   108    1
    70    51    59    1
    71    52   109    1
    72    52   110    1
    73    52   111    1
    74    53    54    1
    75    54    55    2
    76    54    56    1
    77    56   112    1
    78    56   113    1
    79    56   114    1
    80    57   115    1
    81    57   116    1
    82    57   117    1
    83    58   118    1
    84    58   119    1
    85    58   120    1
    86    59   121    1
    87    59   122    1
    88    59   123    1
    89    60    61    2
    90     1    47    1
    91     1    62    1
    92     2    63    1
    93     3    64    1
    94     4    65    1
    95     5     6    1
    96     7     8    2
    97     9    78    1
    98    15    79    1
    99    18    80    1
   100    18    81    1
   101    19    82    1
   102    19    83    1
   103    20    23    1
   104    21    84    1
   105    21    85    1
   106    22    86    1
   107    22    87    1
   108    27    45    1
   109    28    34    1
   110    32    58    1
   111    33    46    2
   112    36    51    1
   113    36    66    1
   114    37    52    1
   115    37    67    1
   116    38    53    1
   117    38    68    1
   118    42    48    1
   119    42    72    1
   120    43    44    2
   121    60    73    1
   122    61    74    1
   123    39    69    1
   124    39    57    1
   125    40    70    1
   126    40    50    1
   127    41    71    1
   128    41    49    1
