@<TRIPOS>MOLECULE
*****
 123 128 0 0 0
SMALL
GASTEIGER

@<TRIPOS>ATOM
     1 C         -4.608961   -1.768838   -0.366669 C.3        1 UNL1     0.0009
     2 C         -5.393719   -3.443036   -0.23156 C.2        1 UNL1     -0.0787
     3 C         -6.120545   -4.541708   -0.832134 C.2        1 UNL1     -0.0649
     4 C         -6.494823   -6.042104   -0.14287 C.2        1 UNL1     -0.0542
     5 C         -6.865759   -7.382848   -0.410993 C.2        1 UNL1     0.0115
     6 C         -7.341317   -8.356458   -1.52421 C.3        1 UNL1     -0.0348
     7 C         -6.664894   -8.488543   0.73534 C.2        1 UNL1     0.2441
     8 O         -7.585995   -8.912337   1.41981 O.2        1 UNL1     -0.2702
     9 N         -5.412489   -9.12692   0.724932 N.am        1 UNL1     -0.2772
     10 C         -4.50554   -8.417333   1.478092 C.2        1 UNL1     0.1049
     11 C         -3.918436   -7.399362   0.875377 C.2        1 UNL1     0.0801
     12 C         -4.203948   -7.321692   3.706532 C.ar        1 UNL1     0.0753
     13 C         -3.76868   -6.161816   2.989707 C.ar        1 UNL1     0.0305
     14 C         -3.487142   -6.208904   1.556679 C.2        1 UNL1     0.0924
     15 N         -3.900123   -7.059009   -0.424759 N.pl3        1 UNL1     -0.3170
     16 C         -2.97662   -5.966633   -0.580039 C.3        1 UNL1     0.1275
     17 N         -2.987171   -5.269742   0.758599 N.2        1 UNL1     -0.2557
     18 C         -1.583723   -6.570264   -0.732251 C.3        1 UNL1     0.0016
     19 C         -1.601778   -7.547454   -1.896882 C.3        1 UNL1     0.0026
     20 N         -1.997176   -6.831654   -3.102004 N.3        1 UNL1     -0.3018
     21 C         -3.298569   -6.164163   -3.029895 C.3        1 UNL1     0.0026
     22 C         -3.256453   -5.184009   -1.856261 C.3        1 UNL1     0.0016
     23 C         -1.758991   -7.591526   -4.312998 C.3        1 UNL1     0.0012
     24 C         -2.711718   -8.794917   -4.389919 C.3        1 UNL1     -0.0339
     25 C         -2.694879   -9.609756   -3.086151 C.3        1 UNL1     -0.0615
     26 C         -4.114033   -8.32746   -4.738885 C.3        1 UNL1     -0.0615
     27 C         -4.35387   -7.300346   5.091157 C.ar        1 UNL1     0.1347
     28 C         -4.061668   -6.193754   5.86841 C.ar        1 UNL1     0.0342
     29 C         -3.681745   -5.04878   5.136387 C.ar        1 UNL1     0.1435
     30 C         -3.56213   -5.044802   3.7461 C.ar        1 UNL1     0.0774
     31 O         -3.259128   -3.924785   5.755286 O.3        1 UNL1     -0.4436
     32 C         -2.538411   -3.203478   4.744763 C.3        1 UNL1     0.3143
     33 C         -3.084125   -3.715682   3.427169 C.2        1 UNL1     0.2504
     34 C         -3.956803   -6.172381   7.367959 C.3        1 UNL1     -0.0327
     35 O         -2.922342   -1.82685   4.848423 O.2        1 UNL1     -0.4528
     36 C         0.086219   0.181967   3.698943 C.3        1 UNL1     0.0854
     37 C         0.857858   0.122538   2.324692 C.3        1 UNL1     0.0236
     38 C         0.981417   1.525487   1.557743 C.3        1 UNL1     0.1131
     39 C         -0.31086   2.40574   1.318067 C.3        1 UNL1     0.0200
     40 C         -1.73377   1.697339   0.812167 C.3        1 UNL1     0.0661
     41 C         -1.900982   0.623831   -0.490611 C.3        1 UNL1     0.0091
     42 C         -3.054982   -0.78129   -0.734171 C.3        1 UNL1     0.0661
     43 C         -4.404503   -8.574432   2.936675 C.2        1 UNL1     0.2131
     44 O         -4.385123   -9.683515   3.438966 O.2        1 UNL1     -0.2851
     45 O         -4.825667   -8.457825   5.706857 O.3        1 UNL1     -0.5056
     46 O         -3.133569   -3.146445   2.359752 O.2        1 UNL1     -0.2836
     47 C         -5.698357   -0.663168   -0.392956 C.3        1 UNL1     -0.0566
     48 O         -3.438382   -0.376414   -2.108288 O.3        1 UNL1     -0.3909
     49 C         -0.528309   0.1448   -0.907492 C.3        1 UNL1     -0.0577
     50 O         -2.484841   1.236642   1.917324 O.3        1 UNL1     -0.3910
     51 O         -0.544777   1.406473   3.998708 O.3        1 UNL1     -0.3753
     52 C         0.592945   -1.218908   1.566212 C.3        1 UNL1     -0.0564
     53 O         1.999624   1.519585   0.455225 O.3        1 UNL1     -0.4608
     54 C         2.094276   2.451866   -0.544686 C.2        1 UNL1     0.3042
     55 O         1.564504   2.413163   -1.654498 O.2        1 UNL1     -0.2512
     56 C         2.902905   3.659932   -0.165993 C.3        1 UNL1     0.0332
     57 C         -0.391688   3.476517   2.503427 C.3        1 UNL1     -0.0567
     58 C         -1.058288   -3.632972   4.872436 C.3        1 UNL1     0.0210
     59 C         -1.49001   1.847772   3.025232 C.3        1 UNL1     0.0372
     60 C         -0.932641   -0.885161   3.894704 C.2        1 UNL1     -0.0208
     61 C         -2.180188   -0.814176   4.360893 C.2        1 UNL1     0.0882
     62 H         -4.280512   -1.859824   0.67571 H        1 UNL1     0.0365
     63 H         -5.254174   -3.648067   0.831906 H        1 UNL1     0.0576
     64 H         -6.36276   -4.553587   -1.897169 H        1 UNL1     0.0615
     65 H         -6.293278   -5.897269   0.921971 H        1 UNL1     0.0622
     66 H         0.860389   0.002349   4.458183 H        1 UNL1     0.0645
     67 H         1.906937   -0.062532   2.614075 H        1 UNL1     0.0362
     68 H         1.58282   2.083801   2.291311 H        1 UNL1     0.0741
     69 H         -0.106203   3.116696   0.528723 H        1 UNL1     0.0359
     70 H         -2.279257   2.59435   0.46163 H        1 UNL1     0.0600
     71 H         -2.136663   1.339956   -1.302138 H        1 UNL1     0.0348
     72 H         -3.501035   -0.155363   0.052319 H        1 UNL1     0.0602
     73 H         -0.485667   -1.831649   3.716874 H        1 UNL1     0.0628
     74 H         -2.729395   0.115468   4.51377 H        1 UNL1     0.1022
     75 H         -6.501209   -9.01321   -1.855765 H        1 UNL1     0.0279
     76 H         -8.105829   -9.077589   -1.243922 H        1 UNL1     0.0279
     77 H         -7.595232   -7.839573   -2.461258 H        1 UNL1     0.0279
     78 H         -5.056065   -9.165333   -0.227729 H        1 UNL1     0.1553
     79 H         -4.121898   -7.693574   -1.169793 H        1 UNL1     0.1484
     80 H         -0.860323   -5.762824   -0.898084 H        1 UNL1     0.0317
     81 H         -1.276749   -7.08244   0.18595 H        1 UNL1     0.0317
     82 H         -2.271723   -8.398288   -1.704096 H        1 UNL1     0.0428
     83 H         -0.599492   -7.967498   -1.986529 H        1 UNL1     0.0428
     84 H         -3.535803   -5.56858   -3.91692 H        1 UNL1     0.0428
     85 H         -4.12484   -6.88545   -2.964023 H        1 UNL1     0.0428
     86 H         -4.170009   -4.621963   -1.915483 H        1 UNL1     0.0317
     87 H         -2.48128   -4.427178   -2.027756 H        1 UNL1     0.0317
     88 H         -1.954182   -6.935791   -5.171606 H        1 UNL1     0.0429
     89 H         -0.711227   -7.910823   -4.383816 H        1 UNL1     0.0429
     90 H         -2.399933   -9.447797   -5.213782 H        1 UNL1     0.0308
     91 H         -1.871691   -9.301115   -2.434841 H        1 UNL1     0.0233
     92 H         -3.639185   -9.497565   -2.548277 H        1 UNL1     0.0233
     93 H         -2.571739   -10.684464   -3.266911 H        1 UNL1     0.0233
     94 H         -4.802577   -8.552445   -3.917226 H        1 UNL1     0.0233
     95 H         -4.118848   -7.245215   -4.895996 H        1 UNL1     0.0233
     96 H         -4.48426   -8.817185   -5.643911 H        1 UNL1     0.0233
     97 H         -4.480315   -7.00684   7.824952 H        1 UNL1     0.0280
     98 H         -2.916579   -6.245944   7.711147 H        1 UNL1     0.0280
     99 H         -4.393004   -5.237002   7.755114 H        1 UNL1     0.0280
     100 H         -5.087554   -8.345312   6.603729 H        1 UNL1     0.2922
     101 H         -5.754627   -0.179216   0.581867 H        1 UNL1     0.0236
     102 H         -6.670003   -1.026587   -0.725845 H        1 UNL1     0.0236
     103 H         -5.44678   0.149482   -1.09474 H        1 UNL1     0.0236
     104 H         -2.903919   -0.906095   -2.731792 H        1 UNL1     0.2098
     105 H         -0.526741   -0.798662   -1.447575 H        1 UNL1     0.0234
     106 H         0.070528   0.88487   -1.43817 H        1 UNL1     0.0234
     107 H         0.0   0.0   0.0 H        1 UNL1     0.0234
     108 H         -3.426323   1.402487   1.717635 H        1 UNL1     0.2098
     109 H         0.547593   -2.080029   2.24748 H        1 UNL1     0.0234
     110 H         -0.310987   -1.192633   0.948183 H        1 UNL1     0.0234
     111 H         1.396508   -1.446117   0.853043 H        1 UNL1     0.0234
     112 H         3.913699   3.355755   0.122306 H        1 UNL1     0.0342
     113 H         2.930394   4.400822   -0.963596 H        1 UNL1     0.0342
     114 H         2.430235   4.129016   0.70791 H        1 UNL1     0.0342
     115 H         -0.454417   4.50476   2.121367 H        1 UNL1     0.0234
     116 H         -1.234505   3.325983   3.180958 H        1 UNL1     0.0234
     117 H         0.528122   3.530629   3.110851 H        1 UNL1     0.0234
     118 H         -0.394714   -3.030696   4.227502 H        1 UNL1     0.0309
     119 H         -0.68745   -3.595978   5.901665 H        1 UNL1     0.0309
     120 H         -0.886418   -4.657542   4.524839 H        1 UNL1     0.0309
     121 H         -2.417105   2.081265   3.548043 H        1 UNL1     0.0524
     122 H         -1.160793   2.764255   2.507822 H        1 UNL1     0.0524
     123 H         -1.661522   1.068796   2.287754 H        1 UNL1     0.0524
@<TRIPOS>BOND
     1     1     2    1
     2     1    42    1
     3     2     3    2
     4     3     4    1
     5     4     5    2
     6     5     7    1
     7     6    75    1
     8     6    76    1
     9     6    77    1
    10     7     9   am
    11     9    10    1
    12    10    11    2
    13    10    43    1
    14    11    14    1
    15    11    15    1
    16    12    13   ar
    17    12    27   ar
    18    12    43    1
    19    13    14    1
    20    13    30   ar
    21    14    17    2
    22    15    16    1
    23    16    17    1
    24    16    18    1
    25    16    22    1
    26    18    19    1
    27    19    20    1
    28    20    21    1
    29    21    22    1
    30    23    24    1
    31    23    88    1
    32    23    89    1
    33    24    25    1
    34    24    26    1
    35    24    90    1
    36    25    91    1
    37    25    92    1
    38    25    93    1
    39    26    94    1
    40    26    95    1
    41    26    96    1
    42    27    28   ar
    43    28    29   ar
    44    29    30   ar
    45    29    31    1
    46    30    33    1
    47    31    32    1
    48    32    33    1
    49    32    35    1
    50    34    97    1
    51    34    98    1
    52    34    99    1
    53    35    61    1
    54    36    37    1
    55    36    60    1
    56    37    38    1
    57    38    39    1
    58    39    40    1
    59    40    41    1
    60    41    42    1
    61    45   100    1
    62    47   101    1
    63    47   102    1
    64    47   103    1
    65    48   104    1
    66    49   105    1
    67    49   106    1
    68    49   107    1
    69    50   108    1
    70    51    59    1
    71    52   109    1
    72    52   110    1
    73    52   111    1
    74    53    54    1
    75    54    55    2
    76    54    56    1
    77    56   112    1
    78    56   113    1
    79    56   114    1
    80    57   115    1
    81    57   116    1
    82    57   117    1
    83    58   118    1
    84    58   119    1
    85    58   120    1
    86    59   121    1
    87    59   122    1
    88    59   123    1
    89    60    61    2
    90     1    47    1
    91     1    62    1
    92     2    63    1
    93     3    64    1
    94     4    65    1
    95     5     6    1
    96     7     8    2
    97     9    78    1
    98    15    79    1
    99    18    80    1
   100    18    81    1
   101    19    82    1
   102    19    83    1
   103    20    23    1
   104    21    84    1
   105    21    85    1
   106    22    86    1
   107    22    87    1
   108    27    45    1
   109    28    34    1
   110    32    58    1
   111    33    46    2
   112    36    51    1
   113    36    66    1
   114    37    52    1
   115    37    67    1
   116    38    53    1
   117    38    68    1
   118    42    48    1
   119    42    72    1
   120    43    44    2
   121    60    73    1
   122    61    74    1
   123    39    69    1
   124    39    57    1
   125    40    70    1
   126    40    50    1
   127    41    71    1
   128    41    49    1
