@<TRIPOS>MOLECULE
*****
 123 128 0 0 0
SMALL
GASTEIGER

@<TRIPOS>ATOM
     1 C         -4.484872   0.753294   2.991035 C.3        1 UNL1     0.0009
     2 C         -5.239031   0.683507   4.683197 C.2        1 UNL1     -0.0787
     3 C         -6.002104   -0.023564   5.690082 C.2        1 UNL1     -0.0649
     4 C         -6.303063   0.446645   7.28842 C.2        1 UNL1     -0.0542
     5 C         -6.681549   -0.000216   8.578435 C.2        1 UNL1     0.0115
     6 C         -7.23792   -1.212063   9.375431 C.3        1 UNL1     -0.0348
     7 C         -6.375458   0.936301   9.845808 C.2        1 UNL1     0.2441
     8 O         -7.232458   1.616467   10.39303 O.2        1 UNL1     -0.2702
     9 N         -5.121918   0.72435   10.445695 N.am        1 UNL1     -0.2772
     10 C         -4.162838   1.505395   9.842821 C.2        1 UNL1     0.1049
     11 C         -3.637823   1.026741   8.729505 C.2        1 UNL1     0.0801
     12 C         -3.688709   3.848011   9.104793 C.ar        1 UNL1     0.0753
     13 C         -3.325862   3.291756   7.836908 C.ar        1 UNL1     0.0305
     14 C         -3.163483   1.851512   7.651483 C.2        1 UNL1     0.0924
     15 N         -3.730609   -0.200143   8.188513 N.pl3        1 UNL1     -0.3170
     16 C         -2.834062   -0.253654   7.064416 C.3        1 UNL1     0.1275
     17 N         -2.740687   1.175088   6.587237 N.2        1 UNL1     -0.2557
     18 C         -1.452605   -0.610899   7.604466 C.3        1 UNL1     0.0016
     19 C         -1.557288   -1.910589   8.386411 C.3        1 UNL1     0.0026
     20 N         -2.058218   -2.95123   7.499188 N.3        1 UNL1     -0.3018
     21 C         -3.355758   -2.670014   6.881388 C.3        1 UNL1     0.0026
     22 C         -3.226382   -1.362922   6.097381 C.3        1 UNL1     0.0016
     23 C         -1.913556   -4.282604   8.053406 C.3        1 UNL1     0.0012
     24 C         -0.463839   -4.771642   7.908766 C.3        1 UNL1     -0.0339
     25 C         0.528552   -3.785717   8.546865 C.3        1 UNL1     -0.0615
     26 C         -0.323239   -6.165151   8.496257 C.3        1 UNL1     -0.0615
     27 C         -3.723682   5.225985   9.304998 C.ar        1 UNL1     0.1347
     28 C         -3.379169   6.143023   8.328062 C.ar        1 UNL1     0.0342
     29 C         -3.072585   5.573885   7.073769 C.ar        1 UNL1     0.1435
     30 C         -3.068535   4.196787   6.848366 C.ar        1 UNL1     0.0774
     31 O         -2.611395   6.327396   6.051746 O.3        1 UNL1     -0.4436
     32 C         -1.984041   5.389645   5.164096 C.3        1 UNL1     0.3143
     33 C         -2.631842   4.055517   5.47501 C.2        1 UNL1     0.2504
     34 C         -3.150727   7.613667   8.540477 C.3        1 UNL1     -0.0327
     35 O         -2.371767   5.740878   3.830096 O.2        1 UNL1     -0.4528
     36 C         0.511131   4.687258   1.596965 C.3        1 UNL1     0.0854
     37 C         1.166893   3.263604   1.421726 C.3        1 UNL1     0.0236
     38 C         1.212545   2.721586   -0.086874 C.3        1 UNL1     0.1131
     39 C         -0.103845   2.729014   -0.963991 C.3        1 UNL1     0.0200
     40 C         -1.556626   2.232845   -0.31155 C.3        1 UNL1     0.0661
     41 C         -1.820425   0.793883   0.547176 C.3        1 UNL1     0.0091
     42 C         -2.976572   0.42376   1.92258 C.3        1 UNL1     0.0661
     43 C         -3.939825   2.907713   10.225079 C.2        1 UNL1     0.2131
     44 O         -3.867877   3.22446   11.398634 O.2        1 UNL1     -0.2851
     45 O         -4.131327   5.686034   10.555445 O.3        1 UNL1     -0.5056
     46 O         -2.775161   3.099394   4.746213 O.2        1 UNL1     -0.2836
     47 C         -5.583666   0.990214   1.920286 C.3        1 UNL1     -0.0566
     48 O         -3.47644   -0.833482   1.315462 O.3        1 UNL1     -0.3909
     49 C         -0.482276   0.197577   0.923035 C.3        1 UNL1     -0.0577
     50 O         -2.20899   3.30751   0.334391 O.3        1 UNL1     -0.3910
     51 O         -0.105048   5.227142   0.449672 O.3        1 UNL1     -0.3753
     52 C         0.853469   2.325586   2.632856 C.3        1 UNL1     -0.0564
     53 O         2.135981   1.554061   -0.277864 O.3        1 UNL1     -0.4608
     54 C         3.285258   1.324798   0.432441 C.2        1 UNL1     0.3042
     55 O         3.416874   0.621535   1.433408 O.2        1 UNL1     -0.2512
     56 C         4.498166   1.987767   -0.155809 C.3        1 UNL1     0.0332
     57 C         -0.096916   4.071881   -1.832803 C.3        1 UNL1     -0.0567
     58 C         -0.494224   5.328464   5.574257 C.3        1 UNL1     0.0210
     59 C         -0.765752   4.27339   -0.380806 C.3        1 UNL1     0.0372
     60 C         -0.477341   4.792256   2.704691 C.2        1 UNL1     -0.0208
     61 C         -1.682652   5.362303   2.736574 C.2        1 UNL1     0.0882
     62 H         -4.070357   1.738297   3.237324 H        1 UNL1     0.0365
     63 H         -5.00988   1.686309   5.049732 H        1 UNL1     0.0576
     64 H         -6.331536   -1.054098   5.539806 H        1 UNL1     0.0615
     65 H         -6.0155   1.501346   7.308332 H        1 UNL1     0.0622
     66 H         1.347254   5.343833   1.875986 H        1 UNL1     0.0645
     67 H         2.238121   3.434901   1.625903 H        1 UNL1     0.0362
     68 H         1.867027   3.483844   -0.536473 H        1 UNL1     0.0741
     69 H         0.027663   2.04865   -1.794785 H        1 UNL1     0.0359
     70 H         -2.138173   2.073963   -1.239785 H        1 UNL1     0.0600
     71 H         -2.12961   0.127814   -0.282109 H        1 UNL1     0.0348
     72 H         -3.36219   1.332805   1.438585 H        1 UNL1     0.0602
     73 H         -0.037218   4.431234   3.600908 H        1 UNL1     0.0628
     74 H         -2.22655   5.704293   1.855407 H        1 UNL1     0.1022
     75 H         -6.451755   -1.995831   9.496617 H        1 UNL1     0.0279
     76 H         -7.537924   -1.020301   10.403193 H        1 UNL1     0.0279
     77 H         -8.011972   -1.764962   8.823301 H        1 UNL1     0.0279
     78 H         -4.845227   -0.247806   10.325562 H        1 UNL1     0.1553
     79 H         -4.006975   -1.016221   8.70288 H        1 UNL1     0.1484
     80 H         -0.753499   -0.703964   6.764611 H        1 UNL1     0.0317
     81 H         -1.065576   0.186791   8.247543 H        1 UNL1     0.0317
     82 H         -2.200461   -1.802172   9.272123 H        1 UNL1     0.0428
     83 H         -0.561731   -2.145818   8.764014 H        1 UNL1     0.0428
     84 H         -3.67154   -3.429381   6.15927 H        1 UNL1     0.0428
     85 H         -4.16651   -2.653399   7.62282 H        1 UNL1     0.0428
     86 H         -4.147259   -1.258773   5.554125 H        1 UNL1     0.0317
     87 H         -2.475648   -1.473742   5.305413 H        1 UNL1     0.0317
     88 H         -2.161939   -4.236641   9.12181 H        1 UNL1     0.0429
     89 H         -2.616927   -4.986166   7.589677 H        1 UNL1     0.0429
     90 H         -0.222466   -4.869846   6.843728 H        1 UNL1     0.0308
     91 H         1.364695   -4.311618   9.017392 H        1 UNL1     0.0233
     92 H         0.917311   -3.09059   7.799019 H        1 UNL1     0.0233
     93 H         0.062542   -3.168818   9.324749 H        1 UNL1     0.0233
     94 H         0.495761   -6.701375   8.004791 H        1 UNL1     0.0233
     95 H         -0.090929   -6.099271   9.562865 H        1 UNL1     0.0233
     96 H         -1.2413   -6.745868   8.370158 H        1 UNL1     0.0233
     97 H         -2.18319   7.934027   8.165683 H        1 UNL1     0.0280
     98 H         -3.894471   8.227945   8.016298 H        1 UNL1     0.0280
     99 H         -3.197028   7.842512   9.61778 H        1 UNL1     0.0280
     100 H         -3.433049   5.808234   11.174394 H        1 UNL1     0.2922
     101 H         -5.217311   1.685266   1.165075 H        1 UNL1     0.0236
     102 H         -6.534033   1.311546   2.345177 H        1 UNL1     0.0236
     103 H         -5.822525   0.070023   1.361371 H        1 UNL1     0.0236
     104 H         -2.721407   -1.267514   0.872168 H        1 UNL1     0.2098
     105 H         0.159128   0.860464   1.498355 H        1 UNL1     0.0234
     106 H         -0.537509   -0.781451   1.398828 H        1 UNL1     0.0234
     107 H         0.0   -0.0   0.0 H        1 UNL1     0.0234
     108 H         -2.219937   3.107839   1.290309 H        1 UNL1     0.2098
     109 H         0.613751   2.88987   3.544904 H        1 UNL1     0.0234
     110 H         0.052845   1.60752   2.425187 H        1 UNL1     0.0234
     111 H         1.715439   1.695971   2.890807 H        1 UNL1     0.0234
     112 H         4.494767   3.054304   0.088798 H        1 UNL1     0.0342
     113 H         5.42276   1.514759   0.171655 H        1 UNL1     0.0342
     114 H         4.444763   1.89282   -1.249106 H        1 UNL1     0.0342
     115 H         0.819287   4.165985   -2.431889 H        1 UNL1     0.0234
     116 H         -0.945394   4.164521   -2.51365 H        1 UNL1     0.0234
     117 H         -0.047913   4.99026   -1.222787 H        1 UNL1     0.0234
     118 H         -0.010054   4.394384   5.239473 H        1 UNL1     0.0309
     119 H         0.08655   6.182672   5.211996 H        1 UNL1     0.0309
     120 H         -0.35793   5.30812   6.661049 H        1 UNL1     0.0309
     121 H         -1.73615   4.062011   0.067529 H        1 UNL1     0.0524
     122 H         -0.946891   4.658728   -1.398028 H        1 UNL1     0.0524
     123 H         -0.177652   3.362528   -0.448355 H        1 UNL1     0.0524
@<TRIPOS>BOND
     1     1     2    1
     2     1    42    1
     3     2     3    2
     4     3     4    1
     5     4     5    2
     6     5     7    1
     7     6    75    1
     8     6    76    1
     9     6    77    1
    10     7     9   am
    11     9    10    1
    12    10    11    2
    13    10    43    1
    14    11    14    1
    15    11    15    1
    16    12    13   ar
    17    12    27   ar
    18    12    43    1
    19    13    14    1
    20    13    30   ar
    21    14    17    2
    22    15    16    1
    23    16    17    1
    24    16    18    1
    25    16    22    1
    26    18    19    1
    27    19    20    1
    28    20    21    1
    29    21    22    1
    30    23    24    1
    31    23    88    1
    32    23    89    1
    33    24    25    1
    34    24    26    1
    35    24    90    1
    36    25    91    1
    37    25    92    1
    38    25    93    1
    39    26    94    1
    40    26    95    1
    41    26    96    1
    42    27    28   ar
    43    28    29   ar
    44    29    30   ar
    45    29    31    1
    46    30    33    1
    47    31    32    1
    48    32    33    1
    49    32    35    1
    50    34    97    1
    51    34    98    1
    52    34    99    1
    53    35    61    1
    54    36    37    1
    55    36    60    1
    56    37    38    1
    57    38    39    1
    58    39    40    1
    59    40    41    1
    60    41    42    1
    61    45   100    1
    62    47   101    1
    63    47   102    1
    64    47   103    1
    65    48   104    1
    66    49   105    1
    67    49   106    1
    68    49   107    1
    69    50   108    1
    70    51    59    1
    71    52   109    1
    72    52   110    1
    73    52   111    1
    74    53    54    1
    75    54    55    2
    76    54    56    1
    77    56   112    1
    78    56   113    1
    79    56   114    1
    80    57   115    1
    81    57   116    1
    82    57   117    1
    83    58   118    1
    84    58   119    1
    85    58   120    1
    86    59   121    1
    87    59   122    1
    88    59   123    1
    89    60    61    2
    90     1    47    1
    91     1    62    1
    92     2    63    1
    93     3    64    1
    94     4    65    1
    95     5     6    1
    96     7     8    2
    97     9    78    1
    98    15    79    1
    99    18    80    1
   100    18    81    1
   101    19    82    1
   102    19    83    1
   103    20    23    1
   104    21    84    1
   105    21    85    1
   106    22    86    1
   107    22    87    1
   108    27    45    1
   109    28    34    1
   110    32    58    1
   111    33    46    2
   112    36    51    1
   113    36    66    1
   114    37    52    1
   115    37    67    1
   116    38    53    1
   117    38    68    1
   118    42    48    1
   119    42    72    1
   120    43    44    2
   121    60    73    1
   122    61    74    1
   123    39    69    1
   124    39    57    1
   125    40    70    1
   126    40    50    1
   127    41    71    1
   128    41    49    1
