@<TRIPOS>MOLECULE
*****
 123 128 0 0 0
SMALL
GASTEIGER

@<TRIPOS>ATOM
     1 C         5.168084   1.743806   0.499637 C.3        1 UNL1     0.0009
     2 C         6.606681   2.549094   -0.348295 C.2        1 UNL1     -0.0787
     3 C         7.889479   2.45014   -1.012134 C.2        1 UNL1     -0.0649
     4 C         8.769033   3.684849   -1.765949 C.2        1 UNL1     -0.0542
     5 C         9.790697   3.977033   -2.702917 C.2        1 UNL1     0.0115
     6 C         10.9197   3.351016   -3.567081 C.3        1 UNL1     -0.0348
     7 C         9.888114   5.460436   -3.308735 C.2        1 UNL1     0.2441
     8 O         10.712077   6.281295   -2.929524 O.2        1 UNL1     -0.2702
     9 N         9.139814   5.668422   -4.48046 N.am        1 UNL1     -0.2772
     10 C         7.856934   6.056   -4.168489 C.2        1 UNL1     0.1049
     11 C         7.009946   5.085147   -3.87818 C.2        1 UNL1     0.0801
     12 C         6.557693   7.663159   -2.759111 C.ar        1 UNL1     0.0753
     13 C         5.797076   6.535679   -2.313175 C.ar        1 UNL1     0.0305
     14 C         5.913947   5.230122   -2.958863 C.2        1 UNL1     0.0924
     15 N         7.131758   3.756131   -4.037572 N.pl3        1 UNL1     -0.3170
     16 C         5.860957   3.157848   -3.725521 C.3        1 UNL1     0.1275
     17 N         5.22384   4.113226   -2.746206 N.2        1 UNL1     -0.2557
     18 C         5.010053   3.218053   -4.990448 C.3        1 UNL1     0.0016
     19 C         5.766087   2.533777   -6.118175 C.3        1 UNL1     0.0026
     20 N         6.034563   1.155322   -5.732416 N.3        1 UNL1     -0.3018
     21 C         6.795933   0.993874   -4.492005 C.3        1 UNL1     0.0026
     22 C         6.016051   1.684599   -3.371926 C.3        1 UNL1     0.0016
     23 C         6.480089   0.335839   -6.84174 C.3        1 UNL1     0.0012
     24 C         5.324805   0.083995   -7.823396 C.3        1 UNL1     -0.0339
     25 C         5.343412   1.091988   -8.984284 C.3        1 UNL1     -0.0615
     26 C         5.371438   -1.348459   -8.32607 C.3        1 UNL1     -0.0615
     27 C         6.353223   8.930817   -2.21934 C.ar        1 UNL1     0.1347
     28 C         5.392938   9.200772   -1.26068 C.ar        1 UNL1     0.0342
     29 C         4.689793   8.066708   -0.801714 C.ar        1 UNL1     0.1435
     30 C         4.908983   6.784692   -1.307293 C.ar        1 UNL1     0.0774
     31 O         3.647613   8.180786   0.050257 O.3        1 UNL1     -0.4436
     32 C         2.925178   6.948588   -0.093431 C.3        1 UNL1     0.3143
     33 C         3.938488   5.954876   -0.624424 C.2        1 UNL1     0.2504
     34 C         4.946517   10.567069   -0.820178 C.3        1 UNL1     -0.0327
     35 O         2.562228   6.511697   1.222109 O.2        1 UNL1     -0.4528
     36 C         -0.681743   4.582213   0.81983 C.3        1 UNL1     0.0854
     37 C         -0.986701   3.322193   -0.078431 C.3        1 UNL1     0.0236
     38 C         -1.589427   2.061341   0.708155 C.3        1 UNL1     0.1131
     39 C         -0.866033   1.529368   2.010451 C.3        1 UNL1     0.0200
     40 C         0.794981   1.382497   2.054047 C.3        1 UNL1     0.0661
     41 C         1.755487   0.613328   0.886393 C.3        1 UNL1     0.0091
     42 C         3.4642   0.974738   0.325067 C.3        1 UNL1     0.0661
     43 C         7.509243   7.455106   -3.878721 C.2        1 UNL1     0.2131
     44 O         7.910906   8.353124   -4.596334 O.2        1 UNL1     -0.2851
     45 O         7.166989   9.965446   -2.676248 O.3        1 UNL1     -0.5056
     46 O         3.953332   4.751283   -0.494051 O.2        1 UNL1     -0.2836
     47 C         5.561962   1.313508   1.938276 C.3        1 UNL1     -0.0566
     48 O         3.911527   -0.43675   0.407021 O.3        1 UNL1     -0.3909
     49 C         0.922966   0.381834   -0.354902 C.3        1 UNL1     -0.0577
     50 O         1.395555   2.599747   2.448177 O.3        1 UNL1     -0.3910
     51 O         -0.808055   4.392147   2.210999 O.3        1 UNL1     -0.3753
     52 C         0.059343   3.161302   -1.229454 C.3        1 UNL1     -0.0564
     53 O         -2.19151   1.02315   -0.192946 O.3        1 UNL1     -0.4608
     54 C         -2.415351   -0.286782   0.141574 C.2        1 UNL1     0.3042
     55 O         -1.8433   -1.280065   -0.305623 O.2        1 UNL1     -0.2512
     56 C         -3.446474   -0.464455   1.219503 C.3        1 UNL1     0.0332
     57 C         -1.588409   2.19849   3.270857 C.3        1 UNL1     -0.0567
     58 C         1.851792   7.194908   -1.17911 C.3        1 UNL1     0.0210
     59 C         -1.160046   5.563097   2.94642 C.3        1 UNL1     0.0372
     60 C         0.648092   5.210326   0.591412 C.2        1 UNL1     -0.0208
     61 C         1.560076   5.644533   1.462326 C.2        1 UNL1     0.0882
     62 H         4.692813   2.728325   0.58654 H        1 UNL1     0.0365
     63 H         6.341111   3.603067   -0.243019 H        1 UNL1     0.0576
     64 H         8.346696   1.483005   -1.232838 H        1 UNL1     0.0615
     65 H         8.28216   4.60051   -1.419537 H        1 UNL1     0.0622
     66 H         -1.42534   5.329439   0.50876 H        1 UNL1     0.0645
     67 H         -1.851095   3.632456   -0.690901 H        1 UNL1     0.0362
     68 H         -2.536673   2.498845   1.058637 H        1 UNL1     0.0741
     69 H         -1.198646   0.518466   2.20501 H        1 UNL1     0.0359
     70 H         0.904925   0.721774   2.935192 H        1 UNL1     0.0600
     71 H         1.797627   -0.408019   1.313045 H        1 UNL1     0.0348
     72 H         3.357251   1.462689   1.304751 H        1 UNL1     0.0602
     73 H         0.767681   5.407839   -0.444897 H        1 UNL1     0.0628
     74 H         1.540776   5.433515   2.532063 H        1 UNL1     0.1022
     75 H         10.963078   2.24565   -3.414379 H        1 UNL1     0.0279
     76 H         10.807733   3.434266   -4.645785 H        1 UNL1     0.0279
     77 H         11.92453   3.654811   -3.238866 H        1 UNL1     0.0279
     78 H         9.077902   4.798703   -5.005658 H        1 UNL1     0.1553
     79 H         7.797603   3.327824   -4.654124 H        1 UNL1     0.1484
     80 H         4.048096   2.727815   -4.797907 H        1 UNL1     0.0317
     81 H         4.784668   4.255078   -5.261431 H        1 UNL1     0.0317
     82 H         6.697538   3.064425   -6.3646 H        1 UNL1     0.0428
     83 H         5.142301   2.589722   -7.010818 H        1 UNL1     0.0428
     84 H         6.914968   -0.049279   -4.183016 H        1 UNL1     0.0428
     85 H         7.82647   1.361124   -4.594171 H        1 UNL1     0.0428
     86 H         6.530929   1.433516   -2.463165 H        1 UNL1     0.0317
     87 H         5.036043   1.207697   -3.248451 H        1 UNL1     0.0317
     88 H         7.275175   0.878556   -7.369556 H        1 UNL1     0.0429
     89 H         6.914243   -0.609048   -6.490355 H        1 UNL1     0.0429
     90 H         4.372047   0.183349   -7.289922 H        1 UNL1     0.0308
     91 H         6.291839   1.054388   -9.528505 H        1 UNL1     0.0233
     92 H         4.523272   0.896244   -9.679023 H        1 UNL1     0.0233
     93 H         5.213916   2.12581   -8.641825 H        1 UNL1     0.0233
     94 H         4.674822   -1.4785   -9.161325 H        1 UNL1     0.0233
     95 H         6.376679   -1.585795   -8.685408 H        1 UNL1     0.0233
     96 H         5.101924   -2.056952   -7.537801 H        1 UNL1     0.0233
     97 H         4.152044   10.517668   -0.081529 H        1 UNL1     0.0280
     98 H         5.759025   11.136309   -0.350015 H        1 UNL1     0.0280
     99 H         4.574575   11.132192   -1.69046 H        1 UNL1     0.0280
     100 H         6.701027   10.716273   -2.999915 H        1 UNL1     0.2922
     101 H         4.698058   0.880382   2.441992 H        1 UNL1     0.0236
     102 H         6.012522   2.118301   2.518179 H        1 UNL1     0.0236
     103 H         6.317577   0.51024   1.938025 H        1 UNL1     0.0236
     104 H         4.329667   -0.563364   1.281148 H        1 UNL1     0.2098
     105 H         0.712512   1.280917   -0.928637 H        1 UNL1     0.0234
     106 H         1.292283   -0.406769   -1.010369 H        1 UNL1     0.0234
     107 H         0.0   -0.0   0.0 H        1 UNL1     0.0234
     108 H         1.195859   3.259213   1.756083 H        1 UNL1     0.2098
     109 H         1.083524   3.046888   -0.847781 H        1 UNL1     0.0234
     110 H         -0.172747   2.334613   -1.909501 H        1 UNL1     0.0234
     111 H         0.082198   4.044316   -1.881918 H        1 UNL1     0.0234
     112 H         -3.572995   -1.528382   1.44176 H        1 UNL1     0.0342
     113 H         -3.198638   0.095962   2.119699 H        1 UNL1     0.0342
     114 H         -4.405522   -0.082652   0.84318 H        1 UNL1     0.0342
     115 H         -2.652858   1.930887   3.321108 H        1 UNL1     0.0234
     116 H         -1.138493   1.937269   4.230747 H        1 UNL1     0.0234
     117 H         -1.647919   3.298852   3.210833 H        1 UNL1     0.0234
     118 H         0.950494   7.682388   -0.767976 H        1 UNL1     0.0309
     119 H         2.222877   7.782881   -2.024561 H        1 UNL1     0.0309
     120 H         1.463115   6.263398   -1.604933 H        1 UNL1     0.0309
     121 H         -0.36081   6.291013   2.80961 H        1 UNL1     0.0524
     122 H         -2.093452   6.022214   2.580356 H        1 UNL1     0.0524
     123 H         -1.273874   5.325028   4.000204 H        1 UNL1     0.0524
@<TRIPOS>BOND
     1     1     2    1
     2     1    42    1
     3     2     3    2
     4     3     4    1
     5     4     5    2
     6     5     7    1
     7     6    75    1
     8     6    76    1
     9     6    77    1
    10     7     9   am
    11     9    10    1
    12    10    11    2
    13    10    43    1
    14    11    14    1
    15    11    15    1
    16    12    13   ar
    17    12    27   ar
    18    12    43    1
    19    13    14    1
    20    13    30   ar
    21    14    17    2
    22    15    16    1
    23    16    17    1
    24    16    18    1
    25    16    22    1
    26    18    19    1
    27    19    20    1
    28    20    21    1
    29    21    22    1
    30    23    24    1
    31    23    88    1
    32    23    89    1
    33    24    25    1
    34    24    26    1
    35    24    90    1
    36    25    91    1
    37    25    92    1
    38    25    93    1
    39    26    94    1
    40    26    95    1
    41    26    96    1
    42    27    28   ar
    43    28    29   ar
    44    29    30   ar
    45    29    31    1
    46    30    33    1
    47    31    32    1
    48    32    33    1
    49    32    35    1
    50    34    97    1
    51    34    98    1
    52    34    99    1
    53    35    61    1
    54    36    37    1
    55    36    60    1
    56    37    38    1
    57    38    39    1
    58    39    40    1
    59    40    41    1
    60    41    42    1
    61    45   100    1
    62    47   101    1
    63    47   102    1
    64    47   103    1
    65    48   104    1
    66    49   105    1
    67    49   106    1
    68    49   107    1
    69    50   108    1
    70    51    59    1
    71    52   109    1
    72    52   110    1
    73    52   111    1
    74    53    54    1
    75    54    55    2
    76    54    56    1
    77    56   112    1
    78    56   113    1
    79    56   114    1
    80    57   115    1
    81    57   116    1
    82    57   117    1
    83    58   118    1
    84    58   119    1
    85    58   120    1
    86    59   121    1
    87    59   122    1
    88    59   123    1
    89    60    61    2
    90     1    47    1
    91     1    62    1
    92     2    63    1
    93     3    64    1
    94     4    65    1
    95     5     6    1
    96     7     8    2
    97     9    78    1
    98    15    79    1
    99    18    80    1
   100    18    81    1
   101    19    82    1
   102    19    83    1
   103    20    23    1
   104    21    84    1
   105    21    85    1
   106    22    86    1
   107    22    87    1
   108    27    45    1
   109    28    34    1
   110    32    58    1
   111    33    46    2
   112    36    51    1
   113    36    66    1
   114    37    52    1
   115    37    67    1
   116    38    53    1
   117    38    68    1
   118    42    48    1
   119    42    72    1
   120    43    44    2
   121    60    73    1
   122    61    74    1
   123    39    69    1
   124    39    57    1
   125    40    70    1
   126    40    50    1
   127    41    71    1
   128    41    49    1
