@<TRIPOS>MOLECULE
*****
 123 128 0 0 0
SMALL
GASTEIGER

@<TRIPOS>ATOM
     1 C         0.629834   3.504562   2.719943 C.3        1 UNL1     0.0009
     2 C         -0.404353   4.103073   4.137434 C.2        1 UNL1     -0.0787
     3 C         -1.285032   5.093976   4.719294 C.2        1 UNL1     -0.0649
     4 C         -2.104036   5.0175   6.199071 C.2        1 UNL1     -0.0542
     5 C         -3.184446   5.533863   6.956145 C.2        1 UNL1     0.0115
     6 C         -4.267157   6.646891   7.003359 C.3        1 UNL1     -0.0348
     7 C         -3.70755   4.705899   8.228083 C.2        1 UNL1     0.2441
     8 O         -3.428023   5.008631   9.379927 O.2        1 UNL1     -0.2702
     9 N         -4.717314   3.769299   7.946466 N.am        1 UNL1     -0.2772
     10 C         -4.165146   2.559982   7.59152 C.2        1 UNL1     0.1049
     11 C         -3.791545   2.438401   6.330622 C.2        1 UNL1     0.0801
     12 C         -2.457907   0.874582   8.300107 C.ar        1 UNL1     0.0753
     13 C         -1.955704   0.936283   6.96123 C.ar        1 UNL1     0.0305
     14 C         -2.689294   1.621874   5.899692 C.2        1 UNL1     0.0924
     15 N         -4.049349   3.227278   5.27339 N.pl3        1 UNL1     -0.3170
     16 C         -3.558553   2.559787   4.097028 C.3        1 UNL1     0.1275
     17 N         -2.427987   1.694366   4.59762 N.2        1 UNL1     -0.2557
     18 C         -4.65107   1.601886   3.631693 C.3        1 UNL1     0.0016
     19 C         -5.931801   2.392492   3.416613 C.3        1 UNL1     0.0026
     20 N         -5.682067   3.42578   2.421134 N.3        1 UNL1     -0.3018
     21 C         -4.604242   4.360254   2.75192 C.3        1 UNL1     0.0026
     22 C         -3.326512   3.545182   2.959178 C.3        1 UNL1     0.0016
     23 C         -6.899078   4.037071   1.925301 C.3        1 UNL1     0.0012
     24 C         -7.66197   3.059206   1.017815 C.3        1 UNL1     -0.0339
     25 C         -8.387268   3.796865   -0.119664 C.3        1 UNL1     -0.0615
     26 C         -6.715259   1.999136   0.482306 C.3        1 UNL1     -0.0615
     27 C         -1.815553   0.118493   9.277772 C.ar        1 UNL1     0.1347
     28 C         -0.690601   -0.64677   9.026962 C.ar        1 UNL1     0.0342
     29 C         -0.185936   -0.531901   7.714224 C.ar        1 UNL1     0.1435
     30 C         -0.798092   0.250133   6.733965 C.ar        1 UNL1     0.0774
     31 O         0.838931   -1.299456   7.283512 O.3        1 UNL1     -0.4436
     32 C         0.748586   -1.254795   5.85148 C.3        1 UNL1     0.3143
     33 C         -0.008706   0.020701   5.54191 C.2        1 UNL1     0.2504
     34 C         -0.097997   -1.672859   9.952199 C.3        1 UNL1     -0.0327
     35 O         2.078374   -1.083609   5.345899 O.2        1 UNL1     -0.4528
     36 C         2.128477   -2.783902   1.952584 C.3        1 UNL1     0.0854
     37 C         1.222384   -2.514983   0.689968 C.3        1 UNL1     0.0236
     38 C         2.024092   -2.190753   -0.660544 C.3        1 UNL1     0.1131
     39 C         3.14702   -1.076617   -0.658767 C.3        1 UNL1     0.0200
     40 C         2.893406   0.377319   0.118529 C.3        1 UNL1     0.0661
     41 C         1.532906   1.374889   -0.058965 C.3        1 UNL1     0.0091
     42 C         0.706968   2.486181   1.144471 C.3        1 UNL1     0.0661
     43 C         -3.735842   1.570611   8.591118 C.2        1 UNL1     0.2131
     44 O         -4.456776   1.288942   9.531146 O.2        1 UNL1     -0.2851
     45 O         -2.343337   0.148672   10.566947 O.3        1 UNL1     -0.5056
     46 O         0.044419   0.705462   4.544848 O.2        1 UNL1     -0.2836
     47 C         1.949976   4.316938   2.634797 C.3        1 UNL1     -0.0566
     48 O         0.625087   3.630397   0.204693 O.3        1 UNL1     -0.3909
     49 C         0.442874   0.593695   -0.758293 C.3        1 UNL1     -0.0577
     50 O         3.250149   0.285015   1.483058 O.3        1 UNL1     -0.3910
     51 O         3.506496   -2.537673   1.78565 O.3        1 UNL1     -0.3753
     52 C         -0.099955   -1.772225   1.070336 C.3        1 UNL1     -0.0564
     53 O         1.180013   -2.286537   -1.897752 O.3        1 UNL1     -0.4608
     54 C         1.283916   -1.473634   -2.996079 C.2        1 UNL1     0.3042
     55 O         0.391696   -0.807022   -3.518966 O.2        1 UNL1     -0.2512
     56 C         2.67846   -1.38262   -3.547148 C.3        1 UNL1     0.0332
     57 C         4.55144   -1.807731   -0.432381 C.3        1 UNL1     -0.0567
     58 C         -0.117989   -2.464289   5.429936 C.3        1 UNL1     0.0210
     59 C         4.328165   -2.969803   2.869158 C.3        1 UNL1     0.0372
     60 C         1.71147   -2.069035   3.189609 C.2        1 UNL1     -0.0208
     61 C         2.435845   -1.39774   4.085929 C.2        1 UNL1     0.0882
     62 H         0.856842   2.597758   3.293427 H        1 UNL1     0.0365
     63 H         -0.191414   3.334643   4.883518 H        1 UNL1     0.0576
     64 H         -1.6394   5.952727   4.14477 H        1 UNL1     0.0615
     65 H         -1.624054   4.18449   6.719835 H        1 UNL1     0.0622
     66 H         1.996435   -3.854348   2.164139 H        1 UNL1     0.0645
     67 H         0.788656   -3.50275   0.455965 H        1 UNL1     0.0362
     68 H         2.559004   -3.143939   -0.790268 H        1 UNL1     0.0741
     69 H         3.335011   -0.770328   -1.679186 H        1 UNL1     0.0359
     70 H         3.700797   0.981107   -0.338221 H        1 UNL1     0.0600
     71 H         1.883535   2.036531   -0.875204 H        1 UNL1     0.0348
     72 H         1.717947   2.309307   1.53938 H        1 UNL1     0.0602
     73 H         0.68391   -2.261645   3.374728 H        1 UNL1     0.0628
     74 H         3.478087   -1.109359   3.945198 H        1 UNL1     0.1022
     75 H         -5.278369   6.219002   6.799899 H        1 UNL1     0.0279
     76 H         -4.411101   7.143389   7.960353 H        1 UNL1     0.0279
     77 H         -4.16877   7.371022   6.181377 H        1 UNL1     0.0279
     78 H         -5.275255   4.094073   7.159509 H        1 UNL1     0.1553
     79 H         -4.796539   3.896559   5.246907 H        1 UNL1     0.1484
     80 H         -4.324733   1.108996   2.707934 H        1 UNL1     0.0317
     81 H         -4.815992   0.808694   4.36878 H        1 UNL1     0.0317
     82 H         -6.303392   2.828884   4.355439 H        1 UNL1     0.0428
     83 H         -6.697929   1.690067   3.08692 H        1 UNL1     0.0428
     84 H         -4.38391   5.075997   1.953812 H        1 UNL1     0.0428
     85 H         -4.861016   4.992021   3.613462 H        1 UNL1     0.0428
     86 H         -2.537429   4.266127   3.066767 H        1 UNL1     0.0317
     87 H         -3.064142   3.017948   2.033823 H        1 UNL1     0.0317
     88 H         -7.533856   4.281947   2.78692 H        1 UNL1     0.0429
     89 H         -6.688028   4.979236   1.40323 H        1 UNL1     0.0429
     90 H         -8.406929   2.520976   1.615778 H        1 UNL1     0.0308
     91 H         -7.733911   4.534125   -0.595768 H        1 UNL1     0.0233
     92 H         -8.740817   3.090528   -0.874449 H        1 UNL1     0.0233
     93 H         -9.274089   4.337826   0.23211 H        1 UNL1     0.0233
     94 H         -7.124537   1.553815   -0.430938 H        1 UNL1     0.0233
     95 H         -5.75062   2.450647   0.234171 H        1 UNL1     0.0233
     96 H         -6.554232   1.201905   1.213375 H        1 UNL1     0.0233
     97 H         -0.057645   -2.657621   9.496298 H        1 UNL1     0.0280
     98 H         0.934927   -1.429232   10.233216 H        1 UNL1     0.0280
     99 H         -0.708335   -1.740609   10.867618 H        1 UNL1     0.0280
     100 H         -2.517369   1.011983   10.898651 H        1 UNL1     0.2922
     101 H         1.790064   5.21725   2.041903 H        1 UNL1     0.0236
     102 H         2.791563   3.730046   2.268365 H        1 UNL1     0.0236
     103 H         2.273553   4.686006   3.62236 H        1 UNL1     0.0236
     104 H         0.925978   3.315654   -0.670162 H        1 UNL1     0.2098
     105 H         -0.338355   1.208308   -1.198455 H        1 UNL1     0.0234
     106 H         0.80025   -0.138617   -1.482123 H        1 UNL1     0.0234
     107 H         0.0   -0.0   0.0 H        1 UNL1     0.0234
     108 H         2.818422   1.028265   1.946696 H        1 UNL1     0.2098
     109 H         -0.993939   -2.316542   0.73534 H        1 UNL1     0.0234
     110 H         -0.180881   -1.558853   2.141628 H        1 UNL1     0.0234
     111 H         -0.159254   -0.783234   0.596704 H        1 UNL1     0.0234
     112 H         3.374186   -1.911073   -2.888325 H        1 UNL1     0.0342
     113 H         2.7416   -1.761047   -4.566289 H        1 UNL1     0.0342
     114 H         2.971311   -0.323833   -3.56648 H        1 UNL1     0.0342
     115 H         5.364358   -1.30836   -0.977341 H        1 UNL1     0.0234
     116 H         4.8522   -1.876895   0.614905 H        1 UNL1     0.0234
     117 H         4.594821   -2.821301   -0.866817 H        1 UNL1     0.0234
     118 H         -0.185366   -2.563592   4.33239 H        1 UNL1     0.0309
     119 H         0.230368   -3.411174   5.854504 H        1 UNL1     0.0309
     120 H         -1.163865   -2.360043   5.738775 H        1 UNL1     0.0309
     121 H         4.805928   -2.086982   3.293101 H        1 UNL1     0.0524
     122 H         3.743716   -3.448903   3.672228 H        1 UNL1     0.0524
     123 H         5.080074   -3.669268   2.514934 H        1 UNL1     0.0524
@<TRIPOS>BOND
     1     1     2    1
     2     1    42    1
     3     2     3    2
     4     3     4    1
     5     4     5    2
     6     5     7    1
     7     6    75    1
     8     6    76    1
     9     6    77    1
    10     7     9   am
    11     9    10    1
    12    10    11    2
    13    10    43    1
    14    11    14    1
    15    11    15    1
    16    12    13   ar
    17    12    27   ar
    18    12    43    1
    19    13    14    1
    20    13    30   ar
    21    14    17    2
    22    15    16    1
    23    16    17    1
    24    16    18    1
    25    16    22    1
    26    18    19    1
    27    19    20    1
    28    20    21    1
    29    21    22    1
    30    23    24    1
    31    23    88    1
    32    23    89    1
    33    24    25    1
    34    24    26    1
    35    24    90    1
    36    25    91    1
    37    25    92    1
    38    25    93    1
    39    26    94    1
    40    26    95    1
    41    26    96    1
    42    27    28   ar
    43    28    29   ar
    44    29    30   ar
    45    29    31    1
    46    30    33    1
    47    31    32    1
    48    32    33    1
    49    32    35    1
    50    34    97    1
    51    34    98    1
    52    34    99    1
    53    35    61    1
    54    36    37    1
    55    36    60    1
    56    37    38    1
    57    38    39    1
    58    39    40    1
    59    40    41    1
    60    41    42    1
    61    45   100    1
    62    47   101    1
    63    47   102    1
    64    47   103    1
    65    48   104    1
    66    49   105    1
    67    49   106    1
    68    49   107    1
    69    50   108    1
    70    51    59    1
    71    52   109    1
    72    52   110    1
    73    52   111    1
    74    53    54    1
    75    54    55    2
    76    54    56    1
    77    56   112    1
    78    56   113    1
    79    56   114    1
    80    57   115    1
    81    57   116    1
    82    57   117    1
    83    58   118    1
    84    58   119    1
    85    58   120    1
    86    59   121    1
    87    59   122    1
    88    59   123    1
    89    60    61    2
    90     1    47    1
    91     1    62    1
    92     2    63    1
    93     3    64    1
    94     4    65    1
    95     5     6    1
    96     7     8    2
    97     9    78    1
    98    15    79    1
    99    18    80    1
   100    18    81    1
   101    19    82    1
   102    19    83    1
   103    20    23    1
   104    21    84    1
   105    21    85    1
   106    22    86    1
   107    22    87    1
   108    27    45    1
   109    28    34    1
   110    32    58    1
   111    33    46    2
   112    36    51    1
   113    36    66    1
   114    37    52    1
   115    37    67    1
   116    38    53    1
   117    38    68    1
   118    42    48    1
   119    42    72    1
   120    43    44    2
   121    60    73    1
   122    61    74    1
   123    39    69    1
   124    39    57    1
   125    40    70    1
   126    40    50    1
   127    41    71    1
   128    41    49    1
