@<TRIPOS>MOLECULE
*****
 123 128 0 0 0
SMALL
GASTEIGER

@<TRIPOS>ATOM
     1 C         -1.674276   -4.058067   -0.074285 C.3        1 UNL1     0.0009
     2 C         -2.176861   -5.242844   1.260161 C.2        1 UNL1     -0.0787
     3 C         -1.833644   -6.261264   2.230248 C.2        1 UNL1     -0.0649
     4 C         -2.839933   -6.975596   3.38933 C.2        1 UNL1     -0.0542
     5 C         -2.877492   -7.696146   4.608541 C.2        1 UNL1     0.0115
     6 C         -2.008368   -8.467074   5.639859 C.3        1 UNL1     -0.0348
     7 C         -4.244359   -7.729   5.44972 C.2        1 UNL1     0.2441
     8 O         -5.000259   -8.690834   5.453744 O.2        1 UNL1     -0.2702
     9 N         -4.386258   -6.688078   6.383796 N.am        1 UNL1     -0.2772
     10 C         -4.966836   -5.589053   5.793546 C.2        1 UNL1     0.1049
     11 C         -4.154765   -4.790373   5.12506 C.2        1 UNL1     0.0801
     12 C         -6.894006   -4.894762   4.357819 C.ar        1 UNL1     0.0753
     13 C         -5.937815   -4.211644   3.540716 C.ar        1 UNL1     0.0305
     14 C         -4.553994   -4.02872   3.972725 C.2        1 UNL1     0.0924
     15 N         -2.811554   -4.753409   5.094354 N.pl3        1 UNL1     -0.3170
     16 C         -2.421033   -3.587235   4.347504 C.3        1 UNL1     0.1275
     17 N         -3.568681   -3.34494   3.397808 N.2        1 UNL1     -0.2557
     18 C         -2.41791   -2.409371   5.317209 C.3        1 UNL1     0.0016
     19 C         -1.50262   -2.742874   6.484518 C.3        1 UNL1     0.0026
     20 N         -0.164774   -3.002093   5.970705 N.3        1 UNL1     -0.3018
     21 C         -0.076117   -4.079392   4.98281 C.3        1 UNL1     0.0026
     22 C         -0.99968   -3.721441   3.817135 C.3        1 UNL1     0.0016
     23 C         0.842787   -3.034504   7.012057 C.3        1 UNL1     0.0012
     24 C         0.912332   -4.430465   7.65097 C.3        1 UNL1     -0.0339
     25 C         2.366591   -4.901578   7.816011 C.3        1 UNL1     -0.0615
     26 C         0.169684   -4.434415   8.975824 C.3        1 UNL1     -0.0615
     27 C         -8.237347   -4.96006   3.995483 C.ar        1 UNL1     0.1347
     28 C         -8.747969   -4.349211   2.864033 C.ar        1 UNL1     0.0342
     29 C         -7.779941   -3.724138   2.049559 C.ar        1 UNL1     0.1435
     30 C         -6.425184   -3.681775   2.381309 C.ar        1 UNL1     0.0774
     31 O         -8.133244   -2.991454   0.970968 O.3        1 UNL1     -0.4436
     32 C         -6.991402   -2.162804   0.705622 C.3        1 UNL1     0.3143
     33 C         -5.818948   -2.892265   1.329682 C.2        1 UNL1     0.2504
     34 C         -10.205026   -4.162739   2.54417 C.3        1 UNL1     -0.0327
     35 O         -6.780369   -2.169466   -0.711655 O.2        1 UNL1     -0.4528
     36 C         -5.229374   1.192372   -1.548642 C.3        1 UNL1     0.0854
     37 C         -3.908948   1.847736   -0.987841 C.3        1 UNL1     0.0236
     38 C         -2.847154   2.290867   -2.104968 C.3        1 UNL1     0.1131
     39 C         -2.406939   1.261089   -3.222124 C.3        1 UNL1     0.0200
     40 C         -2.063495   -0.321919   -2.823917 C.3        1 UNL1     0.0661
     41 C         -1.034225   -0.831629   -1.575554 C.3        1 UNL1     0.0091
     42 C         -1.104838   -2.322586   -0.509036 C.3        1 UNL1     0.0661
     43 C         -6.424065   -5.454861   5.649215 C.2        1 UNL1     0.2131
     44 O         -7.162905   -5.697851   6.586129 O.2        1 UNL1     -0.2851
     45 O         -9.094214   -5.683157   4.822737 O.3        1 UNL1     -0.5056
     46 O         -4.650587   -2.848722   1.015214 O.2        1 UNL1     -0.2836
     47 C         -1.392705   -4.822265   -1.395913 C.3        1 UNL1     -0.0566
     48 O         0.327707   -2.660085   -0.690764 O.3        1 UNL1     -0.3909
     49 C         -0.745067   0.345051   -0.670398 C.3        1 UNL1     -0.0577
     50 O         -3.238766   -1.107029   -2.832032 O.3        1 UNL1     -0.3910
     51 O         -5.241927   0.918386   -2.931467 O.3        1 UNL1     -0.3753
     52 C         -3.469591   1.203125   0.367294 C.3        1 UNL1     -0.0564
     53 O         -1.781155   3.212335   -1.588374 O.3        1 UNL1     -0.4608
     54 C         -1.384575   4.38172   -2.182675 C.2        1 UNL1     0.3042
     55 O         -0.69654   4.509298   -3.194687 O.2        1 UNL1     -0.2512
     56 C         -1.926381   5.611475   -1.511211 C.3        1 UNL1     0.0332
     57 C         -3.320717   1.524697   -4.508085 C.3        1 UNL1     -0.0567
     58 C         -7.222452   -0.840664   1.473797 C.3        1 UNL1     0.0210
     59 C         -5.983114   1.848254   -3.720044 C.3        1 UNL1     0.0372
     60 C         -5.653012   -0.057019   -0.859648 C.2        1 UNL1     -0.0208
     61 C         -6.082783   -1.216545   -1.35919 C.2        1 UNL1     0.0882
     62 H         -2.712654   -3.70958   -0.129428 H        1 UNL1     0.0365
     63 H         -3.260128   -5.10502   1.257384 H        1 UNL1     0.0576
     64 H         -0.7969   -6.554564   2.409819 H        1 UNL1     0.0615
     65 H         -3.846326   -6.686943   3.074154 H        1 UNL1     0.0622
     66 H         -6.01483   1.932473   -1.340424 H        1 UNL1     0.0645
     67 H         -4.239685   2.82646   -0.598903 H        1 UNL1     0.0362
     68 H         -3.440555   3.054925   -2.629955 H        1 UNL1     0.0741
     69 H         -1.479411   1.601272   -3.663007 H        1 UNL1     0.0359
     70 H         -1.516594   -0.633236   -3.734433 H        1 UNL1     0.0600
     71 H         -0.080913   -0.915826   -2.133285 H        1 UNL1     0.0348
     72 H         -1.727453   -2.548013   -1.387016 H        1 UNL1     0.0602
     73 H         -5.695525   0.118331   0.186628 H        1 UNL1     0.0628
     74 H         -6.019043   -1.496169   -2.411324 H        1 UNL1     0.1022
     75 H         -0.979074   -8.036312   5.684942 H        1 UNL1     0.0279
     76 H         -2.328887   -8.417151   6.678051 H        1 UNL1     0.0279
     77 H         -1.7973   -9.500978   5.329707 H        1 UNL1     0.0279
     78 H         -3.469064   -6.405131   6.722579 H        1 UNL1     0.1553
     79 H         -2.226712   -5.171896   5.794184 H        1 UNL1     0.1484
     80 H         -2.079784   -1.510779   4.787144 H        1 UNL1     0.0317
     81 H         -3.429812   -2.197726   5.679028 H        1 UNL1     0.0317
     82 H         -1.877127   -3.599779   7.063629 H        1 UNL1     0.0428
     83 H         -1.516527   -1.890542   7.164507 H        1 UNL1     0.0428
     84 H         0.923676   -4.200451   4.55436 H        1 UNL1     0.0428
     85 H         -0.296776   -5.060082   5.426514 H        1 UNL1     0.0428
     86 H         -0.809404   -4.459224   3.059864 H        1 UNL1     0.0317
     87 H         -0.667764   -2.786394   3.349571 H        1 UNL1     0.0317
     88 H         1.815034   -2.811121   6.553657 H        1 UNL1     0.0429
     89 H         0.65888   -2.261263   7.769058 H        1 UNL1     0.0429
     90 H         0.384216   -5.145822   7.009432 H        1 UNL1     0.0308
     91 H         2.411938   -5.940618   8.155779 H        1 UNL1     0.0233
     92 H         2.912179   -4.808127   6.874093 H        1 UNL1     0.0233
     93 H         2.918918   -4.302454   8.550056 H        1 UNL1     0.0233
     94 H         0.878712   -4.523427   9.806 H        1 UNL1     0.0233
     95 H         -0.378408   -3.496222   9.099723 H        1 UNL1     0.0233
     96 H         -0.537342   -5.266666   9.034483 H        1 UNL1     0.0233
     97 H         -10.352033   -3.62666   1.611304 H        1 UNL1     0.0280
     98 H         -10.728672   -5.120409   2.426193 H        1 UNL1     0.0280
     99 H         -10.689831   -3.590233   3.351819 H        1 UNL1     0.0280
     100 H         -8.673206   -6.099974   5.553926 H        1 UNL1     0.2922
     101 H         -1.048749   -5.831579   -1.170889 H        1 UNL1     0.0236
     102 H         -0.70724   -4.294769   -2.058385 H        1 UNL1     0.0236
     103 H         -2.307767   -4.965393   -1.994554 H        1 UNL1     0.0236
     104 H         0.624652   -2.246534   -1.524892 H        1 UNL1     0.2098
     105 H         -0.352404   1.219841   -1.182619 H        1 UNL1     0.0234
     106 H         -1.568641   0.628833   -0.015326 H        1 UNL1     0.0234
     107 H         0.0   0.0   0.0 H        1 UNL1     0.0234
     108 H         -3.153813   -1.763873   -2.114323 H        1 UNL1     0.2098
     109 H         -2.584525   0.561426   0.255073 H        1 UNL1     0.0234
     110 H         -3.289513   1.940992   1.156513 H        1 UNL1     0.0234
     111 H         -4.254833   0.556695   0.781382 H        1 UNL1     0.0234
     112 H         -1.975379   5.453873   -0.429497 H        1 UNL1     0.0342
     113 H         -1.343234   6.499422   -1.750655 H        1 UNL1     0.0342
     114 H         -2.950049   5.777691   -1.874036 H        1 UNL1     0.0342
     115 H         -3.465176   2.598004   -4.693374 H        1 UNL1     0.0234
     116 H         -2.931776   1.082221   -5.427319 H        1 UNL1     0.0234
     117 H         -4.364135   1.187736   -4.382874 H        1 UNL1     0.0234
     118 H         -6.291984   -0.456706   1.927462 H        1 UNL1     0.0309
     119 H         -7.669105   -0.056362   0.854465 H        1 UNL1     0.0309
     120 H         -7.889937   -0.965132   2.333494 H        1 UNL1     0.0309
     121 H         -6.543272   2.486616   -3.037349 H        1 UNL1     0.0524
     122 H         -5.329212   2.500153   -4.322935 H        1 UNL1     0.0524
     123 H         -6.663073   1.320767   -4.382998 H        1 UNL1     0.0524
@<TRIPOS>BOND
     1     1     2    1
     2     1    42    1
     3     2     3    2
     4     3     4    1
     5     4     5    2
     6     5     7    1
     7     6    75    1
     8     6    76    1
     9     6    77    1
    10     7     9   am
    11     9    10    1
    12    10    11    2
    13    10    43    1
    14    11    14    1
    15    11    15    1
    16    12    13   ar
    17    12    27   ar
    18    12    43    1
    19    13    14    1
    20    13    30   ar
    21    14    17    2
    22    15    16    1
    23    16    17    1
    24    16    18    1
    25    16    22    1
    26    18    19    1
    27    19    20    1
    28    20    21    1
    29    21    22    1
    30    23    24    1
    31    23    88    1
    32    23    89    1
    33    24    25    1
    34    24    26    1
    35    24    90    1
    36    25    91    1
    37    25    92    1
    38    25    93    1
    39    26    94    1
    40    26    95    1
    41    26    96    1
    42    27    28   ar
    43    28    29   ar
    44    29    30   ar
    45    29    31    1
    46    30    33    1
    47    31    32    1
    48    32    33    1
    49    32    35    1
    50    34    97    1
    51    34    98    1
    52    34    99    1
    53    35    61    1
    54    36    37    1
    55    36    60    1
    56    37    38    1
    57    38    39    1
    58    39    40    1
    59    40    41    1
    60    41    42    1
    61    45   100    1
    62    47   101    1
    63    47   102    1
    64    47   103    1
    65    48   104    1
    66    49   105    1
    67    49   106    1
    68    49   107    1
    69    50   108    1
    70    51    59    1
    71    52   109    1
    72    52   110    1
    73    52   111    1
    74    53    54    1
    75    54    55    2
    76    54    56    1
    77    56   112    1
    78    56   113    1
    79    56   114    1
    80    57   115    1
    81    57   116    1
    82    57   117    1
    83    58   118    1
    84    58   119    1
    85    58   120    1
    86    59   121    1
    87    59   122    1
    88    59   123    1
    89    60    61    2
    90     1    47    1
    91     1    62    1
    92     2    63    1
    93     3    64    1
    94     4    65    1
    95     5     6    1
    96     7     8    2
    97     9    78    1
    98    15    79    1
    99    18    80    1
   100    18    81    1
   101    19    82    1
   102    19    83    1
   103    20    23    1
   104    21    84    1
   105    21    85    1
   106    22    86    1
   107    22    87    1
   108    27    45    1
   109    28    34    1
   110    32    58    1
   111    33    46    2
   112    36    51    1
   113    36    66    1
   114    37    52    1
   115    37    67    1
   116    38    53    1
   117    38    68    1
   118    42    48    1
   119    42    72    1
   120    43    44    2
   121    60    73    1
   122    61    74    1
   123    39    69    1
   124    39    57    1
   125    40    70    1
   126    40    50    1
   127    41    71    1
   128    41    49    1
