@<TRIPOS>MOLECULE
*****
 123 128 0 0 0
SMALL
GASTEIGER

@<TRIPOS>ATOM
     1 C         0.259041   0.014501   4.119111 C.3        1 UNL1     0.0009
     2 C         -0.935412   -0.724758   5.328993 C.2        1 UNL1     -0.0787
     3 C         -2.055803   -0.582064   6.234757 C.2        1 UNL1     -0.0649
     4 C         -2.87285   -1.80084   7.079373 C.2        1 UNL1     -0.0542
     5 C         -4.071237   -2.14363   7.752755 C.2        1 UNL1     0.0115
     6 C         -5.401814   -1.574965   8.318006 C.3        1 UNL1     -0.0348
     7 C         -4.405284   -3.693614   8.003653 C.2        1 UNL1     0.2441
     8 O         -4.246573   -4.241838   9.085682 O.2        1 UNL1     -0.2702
     9 N         -5.13543   -4.312872   6.974305 N.am        1 UNL1     -0.2772
     10 C         -4.284081   -4.819305   6.019291 C.2        1 UNL1     0.1049
     11 C         -3.854009   -3.963305   5.110156 C.2        1 UNL1     0.0801
     12 C         -2.227285   -6.214259   5.734632 C.ar        1 UNL1     0.0753
     13 C         -1.717025   -5.155255   4.918082 C.ar        1 UNL1     0.0305
     14 C         -2.56819   -4.054081   4.473127 C.2        1 UNL1     0.0924
     15 N         -4.271511   -2.71641   4.831818 N.pl3        1 UNL1     -0.3170
     16 C         -3.592186   -2.281247   3.640431 C.3        1 UNL1     0.1275
     17 N         -2.294681   -3.052091   3.642384 N.2        1 UNL1     -0.2557
     18 C         -4.391394   -2.800399   2.449024 C.3        1 UNL1     0.0016
     19 C         -5.823711   -2.305326   2.571332 C.3        1 UNL1     0.0026
     20 N         -5.814388   -0.849295   2.601583 N.3        1 UNL1     -0.3018
     21 C         -5.019384   -0.254885   3.678158 C.3        1 UNL1     0.0026
     22 C         -3.583525   -0.762041   3.533261 C.3        1 UNL1     0.0016
     23 C         -7.131142   -0.272929   2.415553 C.3        1 UNL1     0.0012
     24 C         -7.609632   -0.478331   0.969657 C.3        1 UNL1     -0.0339
     25 C         -8.517065   -1.713544   0.847708 C.3        1 UNL1     -0.0615
     26 C         -8.30273   0.776264   0.467277 C.3        1 UNL1     -0.0615
     27 C         -1.443913   -7.32073   6.054269 C.ar        1 UNL1     0.1347
     28 C         -0.154585   -7.497886   5.584908 C.ar        1 UNL1     0.0342
     29 C         0.343778   -6.419663   4.823177 C.ar        1 UNL1     0.1435
     30 C         -0.416902   -5.288419   4.525064 C.ar        1 UNL1     0.0774
     31 O         1.542349   -6.488916   4.203793 O.3        1 UNL1     -0.4436
     32 C         1.486858   -5.472264   3.191759 C.3        1 UNL1     0.3143
     33 C         0.440442   -4.488678   3.675274 C.2        1 UNL1     0.2504
     34 C         0.650768   -8.76405   5.676205 C.3        1 UNL1     -0.0327
     35 O         2.744332   -4.785437   3.208528 O.2        1 UNL1     -0.4528
     36 C         3.326466   -3.593324   -0.347885 C.3        1 UNL1     0.0854
     37 C         2.420296   -2.670103   -1.250127 C.3        1 UNL1     0.0236
     38 C         3.153868   -1.371616   -1.839657 C.3        1 UNL1     0.1131
     39 C         3.956821   -0.414879   -0.868991 C.3        1 UNL1     0.0200
     40 C         3.319322   0.015318   0.611199 C.3        1 UNL1     0.0661
     41 C         1.756243   0.615612   0.883307 C.3        1 UNL1     0.0091
     42 C         0.63949   0.417003   2.325118 C.3        1 UNL1     0.0661
     43 C         -3.648167   -6.13812   6.15601 C.2        1 UNL1     0.2131
     44 O         -4.302064   -7.107242   6.496537 O.2        1 UNL1     -0.2851
     45 O         -2.000716   -8.285073   6.891795 O.3        1 UNL1     -0.5056
     46 O         0.348149   -3.306284   3.431801 O.2        1 UNL1     -0.2836
     47 C         1.331841   0.853298   4.864431 C.3        1 UNL1     -0.0566
     48 O         0.298381   1.858032   2.403832 O.3        1 UNL1     -0.3909
     49 C         0.921663   0.383499   -0.356489 C.3        1 UNL1     -0.0577
     50 O         3.646492   -0.94447   1.595826 O.3        1 UNL1     -0.3910
     51 O         4.601319   -3.082886   -0.029083 O.3        1 UNL1     -0.3753
     52 C         0.941934   -2.63094   -0.742327 C.3        1 UNL1     -0.0564
     53 O         2.399413   -0.71047   -2.955905 O.3        1 UNL1     -0.4608
     54 C         2.576528   0.580546   -3.379977 C.2        1 UNL1     0.3042
     55 O         1.788209   1.518472   -3.26734 O.2        1 UNL1     -0.2512
     56 C         3.924308   0.832376   -3.993805 C.3        1 UNL1     0.0332
     57 C         5.493288   -0.856422   -0.91882 C.3        1 UNL1     -0.0567
     58 C         0.968602   -6.161025   1.907802 C.3        1 UNL1     0.0210
     59 C         5.593404   -4.072707   0.239037 C.3        1 UNL1     0.0372
     60 C         2.704633   -4.025917   0.933266 C.2        1 UNL1     -0.0208
     61 C         3.20763   -4.06696   2.167791 C.2        1 UNL1     0.0882
     62 H         0.691276   -0.981768   3.966362 H        1 UNL1     0.0365
     63 H         -0.55709   -1.747336   5.389638 H        1 UNL1     0.0576
     64 H         -2.598948   0.360889   6.329309 H        1 UNL1     0.0615
     65 H         -2.213169   -2.668048   6.988529 H        1 UNL1     0.0622
     66 H         3.463997   -4.508835   -0.940312 H        1 UNL1     0.0645
     67 H         2.258615   -3.265433   -2.165551 H        1 UNL1     0.0362
     68 H         3.916763   -1.859501   -2.465342 H        1 UNL1     0.0741
     69 H         4.091641   0.541637   -1.356134 H        1 UNL1     0.0359
     70 H         3.960511   0.885508   0.849329 H        1 UNL1     0.0600
     71 H         1.951993   1.703565   0.812611 H        1 UNL1     0.0348
     72 H         1.64988   0.180849   2.68934 H        1 UNL1     0.0602
     73 H         1.754456   -4.455166   0.732871 H        1 UNL1     0.0628
     74 H         4.146366   -3.599557   2.467035 H        1 UNL1     0.1022
     75 H         -5.468448   -0.47576   8.132692 H        1 UNL1     0.0279
     76 H         -6.31882   -1.94493   7.864912 H        1 UNL1     0.0279
     77 H         -5.447967   -1.612859   9.416248 H        1 UNL1     0.0279
     78 H         -5.733517   -3.626755   6.518659 H        1 UNL1     0.1553
     79 H         -5.162901   -2.351639   5.113418 H        1 UNL1     0.1484
     80 H         -3.922984   -2.446398   1.522719 H        1 UNL1     0.0317
     81 H         -4.371839   -3.894876   2.411744 H        1 UNL1     0.0317
     82 H         -6.321994   -2.716545   3.461571 H        1 UNL1     0.0428
     83 H         -6.376267   -2.68843   1.712866 H        1 UNL1     0.0428
     84 H         -4.963878   0.837129   3.630867 H        1 UNL1     0.0428
     85 H         -5.453896   -0.457375   4.666851 H        1 UNL1     0.0428
     86 H         -3.006777   -0.207213   4.249862 H        1 UNL1     0.0317
     87 H         -3.168198   -0.441186   2.570114 H        1 UNL1     0.0317
     88 H         -7.827594   -0.787326   3.090567 H        1 UNL1     0.0429
     89 H         -7.143568   0.789868   2.689564 H        1 UNL1     0.0429
     90 H         -6.73809   -0.619767   0.319562 H        1 UNL1     0.0308
     91 H         -9.382363   -1.638634   1.513103 H        1 UNL1     0.0233
     92 H         -8.864985   -1.837279   -0.180519 H        1 UNL1     0.0233
     93 H         -7.995214   -2.64244   1.10782 H        1 UNL1     0.0233
     94 H         -8.810145   0.573075   -0.481975 H        1 UNL1     0.0233
     95 H         -9.056644   1.101367   1.189693 H        1 UNL1     0.0233
     96 H         -7.589702   1.59052   0.310602 H        1 UNL1     0.0233
     97 H         1.61826   -8.667321   5.192643 H        1 UNL1     0.0280
     98 H         0.861379   -9.046474   6.715982 H        1 UNL1     0.0280
     99 H         0.101742   -9.586555   5.189222 H        1 UNL1     0.0280
     100 H         -1.981178   -9.160808   6.547805 H        1 UNL1     0.2922
     101 H         2.052743   1.247763   4.148641 H        1 UNL1     0.0236
     102 H         1.815807   0.30818   5.674126 H        1 UNL1     0.0236
     103 H         0.898664   1.745796   5.346093 H        1 UNL1     0.0236
     104 H         0.903155   2.269319   3.051954 H        1 UNL1     0.2098
     105 H         0.708662   1.28257   -0.929301 H        1 UNL1     0.0234
     106 H         1.290947   -0.404147   -1.013125 H        1 UNL1     0.0234
     107 H         0.0   -0.0   0.0 H        1 UNL1     0.0234
     108 H         3.208029   -1.779878   1.343614 H        1 UNL1     0.2098
     109 H         0.865514   -2.253551   0.286969 H        1 UNL1     0.0234
     110 H         0.277974   -2.05346   -1.394567 H        1 UNL1     0.0234
     111 H         0.493069   -3.633031   -0.725589 H        1 UNL1     0.0234
     112 H         4.003162   1.87937   -4.301913 H        1 UNL1     0.0342
     113 H         4.737382   0.560382   -3.322408 H        1 UNL1     0.0342
     114 H         4.013246   0.208791   -4.894026 H        1 UNL1     0.0342
     115 H         5.904166   -0.791284   -1.935739 H        1 UNL1     0.0234
     116 H         6.144091   -0.273818   -0.263779 H        1 UNL1     0.0234
     117 H         5.651448   -1.925062   -0.693131 H        1 UNL1     0.0234
     118 H         1.776771   -6.673531   1.357159 H        1 UNL1     0.0309
     119 H         0.158517   -6.87202   2.098725 H        1 UNL1     0.0309
     120 H         0.578116   -5.445914   1.175515 H        1 UNL1     0.0309
     121 H         5.267487   -4.638282   1.111539 H        1 UNL1     0.0524
     122 H         5.709171   -4.785506   -0.594362 H        1 UNL1     0.0524
     123 H         6.551979   -3.600653   0.434979 H        1 UNL1     0.0524
@<TRIPOS>BOND
     1     1     2    1
     2     1    42    1
     3     2     3    2
     4     3     4    1
     5     4     5    2
     6     5     7    1
     7     6    75    1
     8     6    76    1
     9     6    77    1
    10     7     9   am
    11     9    10    1
    12    10    11    2
    13    10    43    1
    14    11    14    1
    15    11    15    1
    16    12    13   ar
    17    12    27   ar
    18    12    43    1
    19    13    14    1
    20    13    30   ar
    21    14    17    2
    22    15    16    1
    23    16    17    1
    24    16    18    1
    25    16    22    1
    26    18    19    1
    27    19    20    1
    28    20    21    1
    29    21    22    1
    30    23    24    1
    31    23    88    1
    32    23    89    1
    33    24    25    1
    34    24    26    1
    35    24    90    1
    36    25    91    1
    37    25    92    1
    38    25    93    1
    39    26    94    1
    40    26    95    1
    41    26    96    1
    42    27    28   ar
    43    28    29   ar
    44    29    30   ar
    45    29    31    1
    46    30    33    1
    47    31    32    1
    48    32    33    1
    49    32    35    1
    50    34    97    1
    51    34    98    1
    52    34    99    1
    53    35    61    1
    54    36    37    1
    55    36    60    1
    56    37    38    1
    57    38    39    1
    58    39    40    1
    59    40    41    1
    60    41    42    1
    61    45   100    1
    62    47   101    1
    63    47   102    1
    64    47   103    1
    65    48   104    1
    66    49   105    1
    67    49   106    1
    68    49   107    1
    69    50   108    1
    70    51    59    1
    71    52   109    1
    72    52   110    1
    73    52   111    1
    74    53    54    1
    75    54    55    2
    76    54    56    1
    77    56   112    1
    78    56   113    1
    79    56   114    1
    80    57   115    1
    81    57   116    1
    82    57   117    1
    83    58   118    1
    84    58   119    1
    85    58   120    1
    86    59   121    1
    87    59   122    1
    88    59   123    1
    89    60    61    2
    90     1    47    1
    91     1    62    1
    92     2    63    1
    93     3    64    1
    94     4    65    1
    95     5     6    1
    96     7     8    2
    97     9    78    1
    98    15    79    1
    99    18    80    1
   100    18    81    1
   101    19    82    1
   102    19    83    1
   103    20    23    1
   104    21    84    1
   105    21    85    1
   106    22    86    1
   107    22    87    1
   108    27    45    1
   109    28    34    1
   110    32    58    1
   111    33    46    2
   112    36    51    1
   113    36    66    1
   114    37    52    1
   115    37    67    1
   116    38    53    1
   117    38    68    1
   118    42    48    1
   119    42    72    1
   120    43    44    2
   121    60    73    1
   122    61    74    1
   123    39    69    1
   124    39    57    1
   125    40    70    1
   126    40    50    1
   127    41    71    1
   128    41    49    1
