@<TRIPOS>MOLECULE
*****
 123 128 0 0 0
SMALL
GASTEIGER

@<TRIPOS>ATOM
     1 C         3.749036   3.624404   1.096173 C.3        1 UNL1     0.0009
     2 C         4.241028   5.368857   0.706474 C.2        1 UNL1     -0.0787
     3 C         5.15598   6.308823   0.093796 C.2        1 UNL1     -0.0649
     4 C         4.987417   7.988077   -0.040548 C.2        1 UNL1     -0.0542
     5 C         5.411276   9.145282   -0.739332 C.2        1 UNL1     0.0115
     6 C         6.448273   9.686568   -1.761569 C.3        1 UNL1     -0.0348
     7 C         4.518121   10.476303   -0.651887 C.2        1 UNL1     0.2441
     8 O         4.809232   11.4274   0.060289 O.2        1 UNL1     -0.2702
     9 N         3.523954   10.584438   -1.63986 N.am        1 UNL1     -0.2772
     10 C         2.363499   9.974358   -1.222167 C.2        1 UNL1     0.1049
     11 C         2.299297   8.66641   -1.393552 C.2        1 UNL1     0.0801
     12 C         0.777793   9.838096   0.707679 C.ar        1 UNL1     0.0753
     13 C         0.906952   8.415843   0.612173 C.ar        1 UNL1     0.0305
     14 C         1.569153   7.782387   -0.525929 C.2        1 UNL1     0.0924
     15 N         3.096048   7.847884   -2.101881 N.pl3        1 UNL1     -0.3170
     16 C         2.492956   6.541543   -2.104468 C.3        1 UNL1     0.1275
     17 N         1.692117   6.492563   -0.826196 N.2        1 UNL1     -0.2557
     18 C         1.476736   6.514926   -3.242137 C.3        1 UNL1     0.0016
     19 C         2.185667   6.881663   -4.536165 C.3        1 UNL1     0.0026
     20 N         3.258379   5.924605   -4.769312 N.3        1 UNL1     -0.3018
     21 C         4.253695   5.833396   -3.69908 C.3        1 UNL1     0.0026
     22 C         3.520359   5.459517   -2.409767 C.3        1 UNL1     0.0016
     23 C         3.799865   6.000361   -6.111585 C.3        1 UNL1     0.0012
     24 C         2.781698   5.471024   -7.133785 C.3        1 UNL1     -0.0339
     25 C         1.964886   6.614479   -7.757792 C.3        1 UNL1     -0.0615
     26 C         3.489509   4.646089   -8.194571 C.3        1 UNL1     -0.0615
     27 C         0.041351   10.42878   1.731819 C.ar        1 UNL1     0.1347
     28 C         -0.640754   9.702261   2.691482 C.ar        1 UNL1     0.0342
     29 C         -0.459067   8.305517   2.60628 C.ar        1 UNL1     0.1435
     30 C         0.30533   7.701454   1.607268 C.ar        1 UNL1     0.0774
     31 O         -1.145514   7.455758   3.401079 O.3        1 UNL1     -0.4436
     32 C         -1.070372   6.189614   2.728691 C.3        1 UNL1     0.3143
     33 C         0.159439   6.281075   1.848115 C.2        1 UNL1     0.2504
     34 C         -1.648479   10.251812   3.66235 C.3        1 UNL1     -0.0327
     35 O         -0.798275   5.194614   3.723271 O.2        1 UNL1     -0.4528
     36 C         -2.404185   1.995211   2.461145 C.3        1 UNL1     0.0854
     37 C         -2.16393   1.227821   1.104343 C.3        1 UNL1     0.0236
     38 C         -1.752695   -0.314021   1.263577 C.3        1 UNL1     0.1131
     39 C         -0.566766   -0.714444   2.23079 C.3        1 UNL1     0.0200
     40 C         0.846745   0.171103   2.246034 C.3        1 UNL1     0.0661
     41 C         1.75585   0.615127   0.884425 C.3        1 UNL1     0.0091
     42 C         2.778639   2.105394   0.570722 C.3        1 UNL1     0.0661
     43 C         1.379639   10.660205   -0.371292 C.2        1 UNL1     0.2131
     44 O         1.026721   11.797075   -0.627635 O.2        1 UNL1     -0.2851
     45 O         0.003407   11.820818   1.77902 O.3        1 UNL1     -0.5056
     46 O         0.871477   5.385206   1.4528 O.2        1 UNL1     -0.2836
     47 C         4.649308   3.048989   2.222401 C.3        1 UNL1     -0.0566
     48 O         3.938523   1.340083   0.052953 O.3        1 UNL1     -0.3909
     49 C         0.922033   0.383149   -0.355909 C.3        1 UNL1     -0.0577
     50 O         0.743521   1.264564   3.135647 O.3        1 UNL1     -0.3910
     51 O         -2.062684   1.292991   3.634898 O.3        1 UNL1     -0.3753
     52 C         -1.52071   2.151867   0.019283 C.3        1 UNL1     -0.0564
     53 O         -1.872741   -1.102009   -0.008032 O.3        1 UNL1     -0.4608
     54 C         -1.242138   -2.290205   -0.269677 C.2        1 UNL1     0.3042
     55 O         -0.343206   -2.495095   -1.084404 O.2        1 UNL1     -0.2512
     56 C         -1.703246   -3.421138   0.605013 C.3        1 UNL1     0.0332
     57 C         -1.208421   -1.118358   3.63909 C.3        1 UNL1     -0.0567
     58 C         -2.323642   6.097958   1.827335 C.3        1 UNL1     0.0210
     59 C         -2.810036   1.661964   4.792995 C.3        1 UNL1     0.0372
     60 C         -1.750481   3.32912   2.553441 C.2        1 UNL1     -0.0208
     61 C         -1.055633   3.884359   3.547242 C.2        1 UNL1     0.0882
     62 H         2.844973   4.008608   1.583789 H        1 UNL1     0.0365
     63 H         3.46964   5.923124   1.245194 H        1 UNL1     0.0576
     64 H         6.00367   5.973231   -0.507791 H        1 UNL1     0.0615
     65 H         4.17513   8.224692   0.652045 H        1 UNL1     0.0622
     66 H         -3.4861   2.18781   2.481486 H        1 UNL1     0.0645
     67 H         -3.172047   1.141629   0.662947 H        1 UNL1     0.0362
     68 H         -2.664574   -0.698817   1.745169 H        1 UNL1     0.0741
     69 H         -0.222674   -1.705795   1.967669 H        1 UNL1     0.0359
     70 H         1.514361   -0.544267   2.76333 H        1 UNL1     0.0600
     71 H         2.459989   -0.238535   0.835371 H        1 UNL1     0.0348
     72 H         2.659347   2.04372   1.662181 H        1 UNL1     0.0602
     73 H         -2.015661   3.907569   1.703544 H        1 UNL1     0.0628
     74 H         -0.695084   3.34522   4.423924 H        1 UNL1     0.1022
     75 H         7.133836   8.870208   -2.094125 H        1 UNL1     0.0279
     76 H         6.052117   10.058207   -2.703914 H        1 UNL1     0.0279
     77 H         7.158213   10.396148   -1.31192 H        1 UNL1     0.0279
     78 H         3.830917   10.111313   -2.487211 H        1 UNL1     0.1553
     79 H         3.714622   8.162597   -2.826626 H        1 UNL1     0.1484
     80 H         1.030408   5.514793   -3.299518 H        1 UNL1     0.0317
     81 H         0.655753   7.213984   -3.049897 H        1 UNL1     0.0317
     82 H         2.572246   7.911146   -4.510966 H        1 UNL1     0.0428
     83 H         1.44251   6.858368   -5.333802 H        1 UNL1     0.0428
     84 H         5.002669   5.052183   -3.862036 H        1 UNL1     0.0428
     85 H         4.844763   6.755446   -3.610875 H        1 UNL1     0.0428
     86 H         4.289193   5.271934   -1.683341 H        1 UNL1     0.0317
     87 H         3.035563   4.482303   -2.52432 H        1 UNL1     0.0317
     88 H         4.006177   7.054701   -6.337631 H        1 UNL1     0.0429
     89 H         4.753643   5.462512   -6.18775 H        1 UNL1     0.0429
     90 H         2.091787   4.783328   -6.630486 H        1 UNL1     0.0308
     91 H         2.614731   7.347785   -8.244687 H        1 UNL1     0.0233
     92 H         1.252013   6.225769   -8.488768 H        1 UNL1     0.0233
     93 H         1.372506   7.159419   -7.012834 H        1 UNL1     0.0233
     94 H         2.805727   4.428075   -9.022066 H        1 UNL1     0.0233
     95 H         4.338854   5.204931   -8.597399 H        1 UNL1     0.0233
     96 H         3.85199   3.698242   -7.786942 H        1 UNL1     0.0233
     97 H         -2.074446   9.475294   4.290683 H        1 UNL1     0.0280
     98 H         -1.204692   10.984366   4.349135 H        1 UNL1     0.0280
     99 H         -2.468778   10.736495   3.108016 H        1 UNL1     0.0280
     100 H         -0.86269   12.18853   1.795942 H        1 UNL1     0.2922
     101 H         4.324495   2.039357   2.472997 H        1 UNL1     0.0236
     102 H         4.700823   3.691828   3.100517 H        1 UNL1     0.0236
     103 H         5.696642   2.933349   1.896959 H        1 UNL1     0.0236
     104 H         4.552872   1.194953   0.798931 H        1 UNL1     0.2098
     105 H         0.709721   1.282225   -0.928969 H        1 UNL1     0.0234
     106 H         1.291498   -0.404696   -1.012204 H        1 UNL1     0.0234
     107 H         0.0   -0.0   0.0 H        1 UNL1     0.0234
     108 H         0.053142   1.859682   2.784963 H        1 UNL1     0.2098
     109 H         -0.550098   2.555882   0.339277 H        1 UNL1     0.0234
     110 H         -1.410477   1.660963   -0.953653 H        1 UNL1     0.0234
     111 H         -2.150889   3.025717   -0.193337 H        1 UNL1     0.0234
     112 H         -1.159037   -4.335299   0.349097 H        1 UNL1     0.0342
     113 H         -1.59995   -3.188375   1.663784 H        1 UNL1     0.0342
     114 H         -2.769282   -3.596725   0.405259 H        1 UNL1     0.0342
     115 H         -1.894382   -1.97154   3.545677 H        1 UNL1     0.0234
     116 H         -0.47327   -1.370521   4.405911 H        1 UNL1     0.0234
     117 H         -1.881627   -0.347986   4.052928 H        1 UNL1     0.0234
     118 H         -3.212069   5.755279   2.38615 H        1 UNL1     0.0309
     119 H         -2.55954   7.040092   1.32242 H        1 UNL1     0.0309
     120 H         -2.218268   5.347876   1.035894 H        1 UNL1     0.0309
     121 H         -2.603284   2.711989   4.998074 H        1 UNL1     0.0524
     122 H         -3.89732   1.561681   4.638743 H        1 UNL1     0.0524
     123 H         -2.516233   1.049555   5.640774 H        1 UNL1     0.0524
@<TRIPOS>BOND
     1     1     2    1
     2     1    42    1
     3     2     3    2
     4     3     4    1
     5     4     5    2
     6     5     7    1
     7     6    75    1
     8     6    76    1
     9     6    77    1
    10     7     9   am
    11     9    10    1
    12    10    11    2
    13    10    43    1
    14    11    14    1
    15    11    15    1
    16    12    13   ar
    17    12    27   ar
    18    12    43    1
    19    13    14    1
    20    13    30   ar
    21    14    17    2
    22    15    16    1
    23    16    17    1
    24    16    18    1
    25    16    22    1
    26    18    19    1
    27    19    20    1
    28    20    21    1
    29    21    22    1
    30    23    24    1
    31    23    88    1
    32    23    89    1
    33    24    25    1
    34    24    26    1
    35    24    90    1
    36    25    91    1
    37    25    92    1
    38    25    93    1
    39    26    94    1
    40    26    95    1
    41    26    96    1
    42    27    28   ar
    43    28    29   ar
    44    29    30   ar
    45    29    31    1
    46    30    33    1
    47    31    32    1
    48    32    33    1
    49    32    35    1
    50    34    97    1
    51    34    98    1
    52    34    99    1
    53    35    61    1
    54    36    37    1
    55    36    60    1
    56    37    38    1
    57    38    39    1
    58    39    40    1
    59    40    41    1
    60    41    42    1
    61    45   100    1
    62    47   101    1
    63    47   102    1
    64    47   103    1
    65    48   104    1
    66    49   105    1
    67    49   106    1
    68    49   107    1
    69    50   108    1
    70    51    59    1
    71    52   109    1
    72    52   110    1
    73    52   111    1
    74    53    54    1
    75    54    55    2
    76    54    56    1
    77    56   112    1
    78    56   113    1
    79    56   114    1
    80    57   115    1
    81    57   116    1
    82    57   117    1
    83    58   118    1
    84    58   119    1
    85    58   120    1
    86    59   121    1
    87    59   122    1
    88    59   123    1
    89    60    61    2
    90     1    47    1
    91     1    62    1
    92     2    63    1
    93     3    64    1
    94     4    65    1
    95     5     6    1
    96     7     8    2
    97     9    78    1
    98    15    79    1
    99    18    80    1
   100    18    81    1
   101    19    82    1
   102    19    83    1
   103    20    23    1
   104    21    84    1
   105    21    85    1
   106    22    86    1
   107    22    87    1
   108    27    45    1
   109    28    34    1
   110    32    58    1
   111    33    46    2
   112    36    51    1
   113    36    66    1
   114    37    52    1
   115    37    67    1
   116    38    53    1
   117    38    68    1
   118    42    48    1
   119    42    72    1
   120    43    44    2
   121    60    73    1
   122    61    74    1
   123    39    69    1
   124    39    57    1
   125    40    70    1
   126    40    50    1
   127    41    71    1
   128    41    49    1
