@<TRIPOS>MOLECULE
*****
 123 128 0 0 0
SMALL
GASTEIGER

@<TRIPOS>ATOM
     1 C         -3.952853   3.622268   -0.529728 C.3        1 UNL1     0.0009
     2 C         -5.514316   3.979394   -1.46318 C.2        1 UNL1     -0.0787
     3 C         -6.243078   4.761469   -2.439556 C.2        1 UNL1     -0.0649
     4 C         -7.812355   4.501606   -3.019381 C.2        1 UNL1     -0.0542
     5 C         -8.722266   4.776276   -4.06995 C.2        1 UNL1     0.0115
     6 C         -8.952144   5.642344   -5.338967 C.3        1 UNL1     -0.0348
     7 C         -10.018307   3.844194   -4.238735 C.2        1 UNL1     0.2441
     8 O         -11.135096   4.18494   -3.873768 O.2        1 UNL1     -0.2702
     9 N         -9.833831   2.723244   -5.066739 N.am        1 UNL1     -0.2772
     10 C         -9.363998   1.657345   -4.33432 C.2        1 UNL1     0.1049
     11 C         -8.061604   1.629366   -4.11704 C.2        1 UNL1     0.0801
     12 C         -9.780068   0.351048   -2.241999 C.ar        1 UNL1     0.0753
     13 C         -8.390836   0.52974   -1.947531 C.ar        1 UNL1     0.0305
     14 C         -7.460438   1.061781   -2.940679 C.2        1 UNL1     0.0924
     15 N         -7.077873   2.360243   -4.668964 N.pl3        1 UNL1     -0.3170
     16 C         -5.823004   1.821191   -4.216217 C.3        1 UNL1     0.1275
     17 N         -6.139272   1.201096   -2.877121 N.2        1 UNL1     -0.2557
     18 C         -5.466383   0.664453   -5.144916 C.3        1 UNL1     0.0016
     19 C         -5.449561   1.177251   -6.57612 C.3        1 UNL1     0.0026
     20 N         -4.470754   2.250947   -6.676828 N.3        1 UNL1     -0.3018
     21 C         -4.695057   3.383255   -5.775754 C.3        1 UNL1     0.0026
     22 C         -4.703573   2.845986   -4.343566 C.3        1 UNL1     0.0016
     23 C         -4.160584   2.604532   -8.047746 C.3        1 UNL1     0.0012
     24 C         -4.519096   1.449656   -8.996158 C.3        1 UNL1     -0.0339
     25 C         -5.698162   1.818892   -9.911322 C.3        1 UNL1     -0.0615
     26 C         -3.297363   1.035866   -9.797985 C.3        1 UNL1     -0.0615
     27 C         -10.63645   -0.267793   -1.334384 C.ar        1 UNL1     0.1347
     28 C         -10.212793   -0.782573   -0.122127 C.ar        1 UNL1     0.0342
     29 C         -8.851194   -0.55164   0.167494 C.ar        1 UNL1     0.1435
     30 C         -7.989334   0.098829   -0.716423 C.ar        1 UNL1     0.0774
     31 O         -8.26215   -1.087212   1.258913 O.3        1 UNL1     -0.4436
     32 C         -6.856659   -1.045961   0.969492 C.3        1 UNL1     0.3143
     33 C         -6.697171   0.05001   -0.064735 C.2        1 UNL1     0.2504
     34 C         -11.013248   -1.675267   0.784775 C.3        1 UNL1     -0.0327
     35 O         -6.190189   -0.599377   2.156771 O.2        1 UNL1     -0.4528
     36 C         -2.755871   -2.214746   2.092496 C.3        1 UNL1     0.0854
     37 C         -1.632488   -2.123649   0.989213 C.3        1 UNL1     0.0236
     38 C         -0.203091   -1.62635   1.519554 C.3        1 UNL1     0.1131
     39 C         -0.102494   -0.305253   2.383762 C.3        1 UNL1     0.0200
     40 C         -0.961603   1.056646   1.94833 C.3        1 UNL1     0.0661
     41 C         -1.000334   1.755153   0.40295 C.3        1 UNL1     0.0091
     42 C         -2.342536   2.659296   -0.461008 C.3        1 UNL1     0.0661
     43 C         -10.260687   0.766174   -3.583243 C.2        1 UNL1     0.2131
     44 O         -11.274549   0.33175   -4.099088 O.2        1 UNL1     -0.2851
     45 O         -11.983291   -0.361273   -1.678938 O.3        1 UNL1     -0.5056
     46 O         -5.728794   0.742245   -0.285891 O.2        1 UNL1     -0.2836
     47 C         -3.728959   4.689591   0.575113 C.3        1 UNL1     -0.0566
     48 O         -1.466124   3.772743   -0.898333 O.3        1 UNL1     -0.3909
     49 C         -0.418362   0.77448   -0.590571 C.3        1 UNL1     -0.0577
     50 O         -2.263888   1.024299   2.496718 O.3        1 UNL1     -0.3910
     51 O         -2.421598   -1.688623   3.356968 O.3        1 UNL1     -0.3753
     52 C         -2.209196   -1.67293   -0.392528 C.3        1 UNL1     -0.0564
     53 O         0.917218   -1.87968   0.553605 O.3        1 UNL1     -0.4608
     54 C         2.119754   -1.222665   0.540641 C.2        1 UNL1     0.3042
     55 O         3.231243   -1.703528   0.323379 O.2        1 UNL1     -0.2512
     56 C         1.999011   0.257202   0.768955 C.3        1 UNL1     0.0332
     57 C         -0.116805   -0.734534   3.924439 C.3        1 UNL1     -0.0567
     58 C         -6.504473   -2.402947   0.316742 C.3        1 UNL1     0.0210
     59 C         -3.481858   -1.703459   4.31169 C.3        1 UNL1     0.0372
     60 C         -4.063124   -1.614846   1.709912 C.2        1 UNL1     -0.0208
     61 C         -4.883372   -0.819106   2.39747 C.2        1 UNL1     0.0882
     62 H         -4.456705   2.775104   -0.04894 H        1 UNL1     0.0365
     63 H         -6.196347   3.262804   -1.000792 H        1 UNL1     0.0576
     64 H         -5.752827   5.535439   -3.03431 H        1 UNL1     0.0615
     65 H         -8.234072   3.779255   -2.315217 H        1 UNL1     0.0622
     66 H         -2.94127   -3.291785   2.209369 H        1 UNL1     0.0645
     67 H         -1.418653   -3.176785   0.736746 H        1 UNL1     0.0362
     68 H         0.031466   -2.447688   2.213751 H        1 UNL1     0.0741
     69 H         0.921088   0.044606   2.36683 H        1 UNL1     0.0359
     70 H         -0.42783   1.818622   2.547946 H        1 UNL1     0.0600
     71 H         -0.171722   2.48389   0.4994 H        1 UNL1     0.0348
     72 H         -2.59614   2.689601   0.60861 H        1 UNL1     0.0602
     73 H         -4.372122   -2.016657   0.777005 H        1 UNL1     0.0628
     74 H         -4.620152   -0.321057   3.331226 H        1 UNL1     0.1022
     75 H         -8.792329   5.034971   -6.262326 H        1 UNL1     0.0279
     76 H         -9.957352   6.031168   -5.485401 H        1 UNL1     0.0279
     77 H         -8.191643   6.4274   -5.461547 H        1 UNL1     0.0279
     78 H         -9.138838   2.935218   -5.779572 H        1 UNL1     0.1553
     79 H         -7.174177   2.861878   -5.532689 H        1 UNL1     0.1484
     80 H         -4.489829   0.259608   -4.853013 H        1 UNL1     0.0317
     81 H         -6.187454   -0.153947   -5.045273 H        1 UNL1     0.0317
     82 H         -6.444723   1.517335   -6.898468 H        1 UNL1     0.0428
     83 H         -5.194951   0.336087   -7.221617 H        1 UNL1     0.0428
     84 H         -3.903363   4.137943   -5.814198 H        1 UNL1     0.0428
     85 H         -5.60632   3.939002   -6.036639 H        1 UNL1     0.0428
     86 H         -4.735858   3.712492   -3.709443 H        1 UNL1     0.0317
     87 H         -3.73239   2.394401   -4.106982 H        1 UNL1     0.0317
     88 H         -4.764351   3.480248   -8.319559 H        1 UNL1     0.0429
     89 H         -3.107348   2.893763   -8.15643 H        1 UNL1     0.0429
     90 H         -4.799432   0.571346   -8.402696 H        1 UNL1     0.0308
     91 H         -5.78054   2.902748   -10.036106 H        1 UNL1     0.0233
     92 H         -5.586152   1.352368   -10.892861 H        1 UNL1     0.0233
     93 H         -6.659543   1.470318   -9.514991 H        1 UNL1     0.0233
     94 H         -3.565873   0.258322   -10.521286 H        1 UNL1     0.0233
     95 H         -2.907313   1.893123   -10.353802 H        1 UNL1     0.0233
     96 H         -2.507489   0.646643   -9.149469 H        1 UNL1     0.0233
     97 H         -12.081467   -1.511164   0.678901 H        1 UNL1     0.0280
     98 H         -10.849676   -2.739006   0.568077 H        1 UNL1     0.0280
     99 H         -10.735905   -1.479939   1.833594 H        1 UNL1     0.0280
     100 H         -12.362312   0.438925   -1.99776 H        1 UNL1     0.2922
     101 H         -3.901094   4.245704   1.555414 H        1 UNL1     0.0236
     102 H         -4.320419   5.592206   0.425299 H        1 UNL1     0.0236
     103 H         -2.683894   5.040386   0.606346 H        1 UNL1     0.0236
     104 H         -1.475335   4.449637   -0.193564 H        1 UNL1     0.2098
     105 H         -1.148768   0.325589   -1.259012 H        1 UNL1     0.0234
     106 H         0.431676   1.152161   -1.158656 H        1 UNL1     0.0234
     107 H         0.0   0.0   0.0 H        1 UNL1     0.0234
     108 H         -2.807842   1.657653   1.990017 H        1 UNL1     0.2098
     109 H         -2.693065   -0.687631   -0.339904 H        1 UNL1     0.0234
     110 H         -1.460081   -1.67105   -1.191631 H        1 UNL1     0.0234
     111 H         -2.981908   -2.364634   -0.753648 H        1 UNL1     0.0234
     112 H         1.89748   0.461595   1.839124 H        1 UNL1     0.0342
     113 H         2.837525   0.806906   0.344028 H        1 UNL1     0.0342
     114 H         1.084543   0.607712   0.270903 H        1 UNL1     0.0342
     115 H         0.64285   -1.497697   4.14283 H        1 UNL1     0.0234
     116 H         0.041371   0.094021   4.61764 H        1 UNL1     0.0234
     117 H         -1.039346   -1.259679   4.226238 H        1 UNL1     0.0234
     118 H         -6.515468   -3.230056   1.048026 H        1 UNL1     0.0309
     119 H         -7.158685   -2.658486   -0.522847 H        1 UNL1     0.0309
     120 H         -5.482423   -2.427399   -0.076861 H        1 UNL1     0.0309
     121 H         -3.513757   -2.699012   4.753519 H        1 UNL1     0.0524
     122 H         -3.318334   -0.982295   5.129749 H        1 UNL1     0.0524
     123 H         -4.427459   -1.478106   3.82677 H        1 UNL1     0.0524
@<TRIPOS>BOND
     1     1     2    1
     2     1    42    1
     3     2     3    2
     4     3     4    1
     5     4     5    2
     6     5     7    1
     7     6    75    1
     8     6    76    1
     9     6    77    1
    10     7     9   am
    11     9    10    1
    12    10    11    2
    13    10    43    1
    14    11    14    1
    15    11    15    1
    16    12    13   ar
    17    12    27   ar
    18    12    43    1
    19    13    14    1
    20    13    30   ar
    21    14    17    2
    22    15    16    1
    23    16    17    1
    24    16    18    1
    25    16    22    1
    26    18    19    1
    27    19    20    1
    28    20    21    1
    29    21    22    1
    30    23    24    1
    31    23    88    1
    32    23    89    1
    33    24    25    1
    34    24    26    1
    35    24    90    1
    36    25    91    1
    37    25    92    1
    38    25    93    1
    39    26    94    1
    40    26    95    1
    41    26    96    1
    42    27    28   ar
    43    28    29   ar
    44    29    30   ar
    45    29    31    1
    46    30    33    1
    47    31    32    1
    48    32    33    1
    49    32    35    1
    50    34    97    1
    51    34    98    1
    52    34    99    1
    53    35    61    1
    54    36    37    1
    55    36    60    1
    56    37    38    1
    57    38    39    1
    58    39    40    1
    59    40    41    1
    60    41    42    1
    61    45   100    1
    62    47   101    1
    63    47   102    1
    64    47   103    1
    65    48   104    1
    66    49   105    1
    67    49   106    1
    68    49   107    1
    69    50   108    1
    70    51    59    1
    71    52   109    1
    72    52   110    1
    73    52   111    1
    74    53    54    1
    75    54    55    2
    76    54    56    1
    77    56   112    1
    78    56   113    1
    79    56   114    1
    80    57   115    1
    81    57   116    1
    82    57   117    1
    83    58   118    1
    84    58   119    1
    85    58   120    1
    86    59   121    1
    87    59   122    1
    88    59   123    1
    89    60    61    2
    90     1    47    1
    91     1    62    1
    92     2    63    1
    93     3    64    1
    94     4    65    1
    95     5     6    1
    96     7     8    2
    97     9    78    1
    98    15    79    1
    99    18    80    1
   100    18    81    1
   101    19    82    1
   102    19    83    1
   103    20    23    1
   104    21    84    1
   105    21    85    1
   106    22    86    1
   107    22    87    1
   108    27    45    1
   109    28    34    1
   110    32    58    1
   111    33    46    2
   112    36    51    1
   113    36    66    1
   114    37    52    1
   115    37    67    1
   116    38    53    1
   117    38    68    1
   118    42    48    1
   119    42    72    1
   120    43    44    2
   121    60    73    1
   122    61    74    1
   123    39    69    1
   124    39    57    1
   125    40    70    1
   126    40    50    1
   127    41    71    1
   128    41    49    1
