@<TRIPOS>MOLECULE
*****
 123 128 0 0 0
SMALL
GASTEIGER

@<TRIPOS>ATOM
     1 C         5.165379   1.763339   0.456913 C.3        1 UNL1     0.0009
     2 C         6.595751   2.569021   -0.404452 C.2        1 UNL1     -0.0787
     3 C         7.874442   2.470886   -1.076289 C.2        1 UNL1     -0.0649
     4 C         8.745032   3.704671   -1.841929 C.2        1 UNL1     -0.0542
     5 C         9.759537   3.995501   -2.787062 C.2        1 UNL1     0.0115
     6 C         10.8848   3.368843   -3.655627 C.3        1 UNL1     -0.0348
     7 C         9.848195   5.47622   -3.400737 C.2        1 UNL1     0.2441
     8 O         10.672014   6.301535   -3.031003 O.2        1 UNL1     -0.2702
     9 N         9.0915   5.676093   -4.568477 N.am        1 UNL1     -0.2772
     10 C         7.809477   6.061124   -4.249902 C.2        1 UNL1     0.1049
     11 C         6.967541   5.089024   -3.949256 C.2        1 UNL1     0.0801
     12 C         6.514442   7.671038   -2.839797 C.ar        1 UNL1     0.0753
     13 C         5.760406   6.54335   -2.383337 C.ar        1 UNL1     0.0305
     14 C         5.877185   5.235024   -3.023413 C.2        1 UNL1     0.0924
     15 N         7.092551   3.759637   -4.10297 N.pl3        1 UNL1     -0.3170
     16 C         5.825764   3.158863   -3.779589 C.3        1 UNL1     0.1275
     17 N         5.192081   4.117   -2.800743 N.2        1 UNL1     -0.2557
     18 C         4.966326   3.210174   -5.039127 C.3        1 UNL1     0.0016
     19 C         5.717074   2.522785   -6.168491 C.3        1 UNL1     0.0026
     20 N         5.992509   1.147094   -5.777803 N.3        1 UNL1     -0.3018
     21 C         6.762578   0.994136   -4.541693 C.3        1 UNL1     0.0026
     22 C         5.987911   1.687862   -3.419851 C.3        1 UNL1     0.0016
     23 C         6.433312   0.323605   -6.886046 C.3        1 UNL1     0.0012
     24 C         5.273465   0.066925   -7.861048 C.3        1 UNL1     -0.0339
     25 C         5.360092   0.984189   -9.091974 C.3        1 UNL1     -0.0615
     26 C         5.241003   -1.398898   -8.257391 C.3        1 UNL1     -0.0615
     27 C         6.309487   8.94067   -2.30487 C.ar        1 UNL1     0.1347
     28 C         5.354703   9.21227   -1.341194 C.ar        1 UNL1     0.0342
     29 C         4.658244   8.078244   -0.872053 C.ar        1 UNL1     0.1435
     30 C         4.878191   6.794469   -1.372817 C.ar        1 UNL1     0.0774
     31 O         3.621361   8.193188   -0.013759 O.3        1 UNL1     -0.4436
     32 C         2.901941   6.958016   -0.146647 C.3        1 UNL1     0.3143
     33 C         3.914895   5.964934   -0.679492 C.2        1 UNL1     0.2504
     34 C         4.906831   10.579286   -0.90441 C.3        1 UNL1     -0.0327
     35 O         2.5491   6.526425   1.173385 O.2        1 UNL1     -0.4528
     36 C         -0.691264   4.584719   0.802029 C.3        1 UNL1     0.0854
     37 C         -0.998118   3.319354   -0.088035 C.3        1 UNL1     0.0236
     38 C         -1.591588   2.060464   0.708667 C.3        1 UNL1     0.1131
     39 C         -0.857898   1.537171   2.008718 C.3        1 UNL1     0.0200
     40 C         0.80383   1.395783   2.042018 C.3        1 UNL1     0.0661
     41 C         1.759053   0.623954   0.871788 C.3        1 UNL1     0.0091
     42 C         3.46285   0.988027   0.297393 C.3        1 UNL1     0.0661
     43 C         7.45923   7.460524   -3.964662 C.2        1 UNL1     0.2131
     44 O         7.85326   8.356285   -4.689292 O.2        1 UNL1     -0.2851
     45 O         7.116896   9.975624   -2.772202 O.3        1 UNL1     -0.5056
     46 O         3.934456   4.762047   -0.543354 O.2        1 UNL1     -0.2836
     47 C         5.570138   1.341342   1.894991 C.3        1 UNL1     -0.0566
     48 O         3.915228   -0.421617   0.383262 O.3        1 UNL1     -0.3909
     49 C         0.919087   0.383746   -0.362818 C.3        1 UNL1     -0.0577
     50 O         1.403095   2.616846   2.426219 O.3        1 UNL1     -0.3910
     51 O         -0.807764   4.401068   2.194915 O.3        1 UNL1     -0.3753
     52 C         0.040802   3.156145   -1.245169 C.3        1 UNL1     -0.0564
     53 O         -2.196288   1.015969   -0.183351 O.3        1 UNL1     -0.4608
     54 C         -2.394637   -0.297899   0.151818 C.2        1 UNL1     0.3042
     55 O         -1.811662   -1.281063   -0.303556 O.2        1 UNL1     -0.2512
     56 C         -3.40994   -0.493897   1.241524 C.3        1 UNL1     0.0332
     57 C         -1.574063   2.210164   3.270606 C.3        1 UNL1     -0.0567
     58 C         1.820616   7.195613   -1.226375 C.3        1 UNL1     0.0210
     59 C         -1.120005   5.582672   2.931246 C.3        1 UNL1     0.0372
     60 C         0.635013   5.215918   0.561742 C.2        1 UNL1     -0.0208
     61 C         1.551341   5.657274   1.424465 C.2        1 UNL1     0.0882
     62 H         4.687542   2.74676   0.542163 H        1 UNL1     0.0365
     63 H         6.327509   3.62265   -0.302558 H        1 UNL1     0.0576
     64 H         8.333285   1.504136   -1.2953 H        1 UNL1     0.0615
     65 H         8.257531   4.620469   -1.496765 H        1 UNL1     0.0622
     66 H         -1.439291   5.32805   0.492256 H        1 UNL1     0.0645
     67 H         -1.867532   3.623871   -0.696269 H        1 UNL1     0.0362
     68 H         -2.537892   2.496674   1.063282 H        1 UNL1     0.0741
     69 H         -1.185977   0.526184   2.210403 H        1 UNL1     0.0359
     70 H         0.921714   0.739735   2.925627 H        1 UNL1     0.0600
     71 H         1.807284   -0.395153   1.303126 H        1 UNL1     0.0348
     72 H         3.360819   1.480428   1.275374 H        1 UNL1     0.0602
     73 H         0.747114   5.408732   -0.476287 H        1 UNL1     0.0628
     74 H         1.539791   5.451437   2.495322 H        1 UNL1     0.1022
     75 H         10.914012   2.260846   -3.519524 H        1 UNL1     0.0279
     76 H         10.778822   3.469755   -4.733427 H        1 UNL1     0.0279
     77 H         11.891733   3.655314   -3.318403 H        1 UNL1     0.0279
     78 H         9.028902   4.80362   -5.089006 H        1 UNL1     0.1553
     79 H         7.755674   3.330429   -4.721826 H        1 UNL1     0.1484
     80 H         4.007238   2.717838   -4.837825 H        1 UNL1     0.0317
     81 H         4.735834   4.24514   -5.313663 H        1 UNL1     0.0317
     82 H         6.64517   3.055171   -6.423668 H        1 UNL1     0.0428
     83 H         5.087223   2.572379   -7.057241 H        1 UNL1     0.0428
     84 H         6.886994   -0.047108   -4.228417 H        1 UNL1     0.0428
     85 H         7.791235   1.364148   -4.652477 H        1 UNL1     0.0428
     86 H         6.509589   1.442866   -2.513309 H        1 UNL1     0.0317
     87 H         5.010274   1.208466   -3.287559 H        1 UNL1     0.0317
     88 H         7.225352   0.864892   -7.419877 H        1 UNL1     0.0429
     89 H         6.869978   -0.619527   -6.533059 H        1 UNL1     0.0429
     90 H         4.323728   0.259619   -7.348132 H        1 UNL1     0.0308
     91 H         6.313049   0.859244   -9.614817 H        1 UNL1     0.0233
     92 H         4.541049   0.778764   -9.785212 H        1 UNL1     0.0233
     93 H         5.278643   2.045657   -8.828374 H        1 UNL1     0.0233
     94 H         4.560268   -1.5466   -9.102743 H        1 UNL1     0.0233
     95 H         6.23815   -1.724501   -8.566654 H        1 UNL1     0.0233
     96 H         4.905064   -2.028911   -7.429021 H        1 UNL1     0.0233
     97 H         4.111093   10.531073   -0.167045 H        1 UNL1     0.0280
     98 H         5.718231   11.149944   -0.434054 H        1 UNL1     0.0280
     99 H         4.536127   11.14235   -1.776552 H        1 UNL1     0.0280
     100 H         6.646621   10.728365   -3.085003 H        1 UNL1     0.2922
     101 H         4.707828   0.919379   2.410767 H        1 UNL1     0.0236
     102 H         6.033025   2.147017   2.463855 H        1 UNL1     0.0236
     103 H         6.319146   0.531911   1.893711 H        1 UNL1     0.0236
     104 H         4.334178   -0.544201   1.257576 H        1 UNL1     0.2098
     105 H         0.701335   1.279446   -0.939115 H        1 UNL1     0.0234
     106 H         1.287001   -0.406374   -1.017248 H        1 UNL1     0.0234
     107 H         0.0   -0.0   0.0 H        1 UNL1     0.0234
     108 H         1.214394   3.266788   1.722134 H        1 UNL1     0.2098
     109 H         1.069262   3.059243   -0.870215 H        1 UNL1     0.0234
     110 H         -0.186412   2.317841   -1.912524 H        1 UNL1     0.0234
     111 H         0.047701   4.03074   -1.909234 H        1 UNL1     0.0234
     112 H         -3.504807   -1.558792   1.474643 H        1 UNL1     0.0342
     113 H         -3.168983   0.081505   2.134103 H        1 UNL1     0.0342
     114 H         -4.382793   -0.142214   0.871334 H        1 UNL1     0.0342
     115 H         -2.645466   1.969645   3.308467 H        1 UNL1     0.0234
     116 H         -1.139665   1.926311   4.231218 H        1 UNL1     0.0234
     117 H         -1.604639   3.312318   3.223036 H        1 UNL1     0.0234
     118 H         0.91865   7.678009   -0.810736 H        1 UNL1     0.0309
     119 H         2.182932   7.784513   -2.074978 H        1 UNL1     0.0309
     120 H         1.435418   6.26091   -1.648346 H        1 UNL1     0.0309
     121 H         -0.284186   6.272487   2.81758 H        1 UNL1     0.0524
     122 H         -2.022095   6.088189   2.548201 H        1 UNL1     0.0524
     123 H         -1.26856   5.343454   3.980436 H        1 UNL1     0.0524
@<TRIPOS>BOND
     1     1     2    1
     2     1    42    1
     3     2     3    2
     4     3     4    1
     5     4     5    2
     6     5     7    1
     7     6    75    1
     8     6    76    1
     9     6    77    1
    10     7     9   am
    11     9    10    1
    12    10    11    2
    13    10    43    1
    14    11    14    1
    15    11    15    1
    16    12    13   ar
    17    12    27   ar
    18    12    43    1
    19    13    14    1
    20    13    30   ar
    21    14    17    2
    22    15    16    1
    23    16    17    1
    24    16    18    1
    25    16    22    1
    26    18    19    1
    27    19    20    1
    28    20    21    1
    29    21    22    1
    30    23    24    1
    31    23    88    1
    32    23    89    1
    33    24    25    1
    34    24    26    1
    35    24    90    1
    36    25    91    1
    37    25    92    1
    38    25    93    1
    39    26    94    1
    40    26    95    1
    41    26    96    1
    42    27    28   ar
    43    28    29   ar
    44    29    30   ar
    45    29    31    1
    46    30    33    1
    47    31    32    1
    48    32    33    1
    49    32    35    1
    50    34    97    1
    51    34    98    1
    52    34    99    1
    53    35    61    1
    54    36    37    1
    55    36    60    1
    56    37    38    1
    57    38    39    1
    58    39    40    1
    59    40    41    1
    60    41    42    1
    61    45   100    1
    62    47   101    1
    63    47   102    1
    64    47   103    1
    65    48   104    1
    66    49   105    1
    67    49   106    1
    68    49   107    1
    69    50   108    1
    70    51    59    1
    71    52   109    1
    72    52   110    1
    73    52   111    1
    74    53    54    1
    75    54    55    2
    76    54    56    1
    77    56   112    1
    78    56   113    1
    79    56   114    1
    80    57   115    1
    81    57   116    1
    82    57   117    1
    83    58   118    1
    84    58   119    1
    85    58   120    1
    86    59   121    1
    87    59   122    1
    88    59   123    1
    89    60    61    2
    90     1    47    1
    91     1    62    1
    92     2    63    1
    93     3    64    1
    94     4    65    1
    95     5     6    1
    96     7     8    2
    97     9    78    1
    98    15    79    1
    99    18    80    1
   100    18    81    1
   101    19    82    1
   102    19    83    1
   103    20    23    1
   104    21    84    1
   105    21    85    1
   106    22    86    1
   107    22    87    1
   108    27    45    1
   109    28    34    1
   110    32    58    1
   111    33    46    2
   112    36    51    1
   113    36    66    1
   114    37    52    1
   115    37    67    1
   116    38    53    1
   117    38    68    1
   118    42    48    1
   119    42    72    1
   120    43    44    2
   121    60    73    1
   122    61    74    1
   123    39    69    1
   124    39    57    1
   125    40    70    1
   126    40    50    1
   127    41    71    1
   128    41    49    1
