@<TRIPOS>MOLECULE
*****
 123 128 0 0 0
SMALL
GASTEIGER

@<TRIPOS>ATOM
     1 C         -1.258925   1.081829   -5.125547 C.3        1 UNL1     0.0009
     2 C         -2.632345   1.688039   -6.213327 C.2        1 UNL1     -0.0787
     3 C         -3.625986   1.44133   -7.236977 C.2        1 UNL1     -0.0649
     4 C         -4.817498   2.500272   -7.807328 C.2        1 UNL1     -0.0542
     5 C         -6.056748   2.595976   -8.487163 C.2        1 UNL1     0.0115
     6 C         -7.09787   1.798824   -9.320192 C.3        1 UNL1     -0.0348
     7 C         -6.916135   3.944875   -8.349625 C.2        1 UNL1     0.2441
     8 O         -6.956812   4.79997   -9.223514 O.2        1 UNL1     -0.2702
     9 N         -7.82252   3.95879   -7.275184 N.am        1 UNL1     -0.2772
     10 C         -7.209357   4.426715   -6.13571 C.2        1 UNL1     0.1049
     11 C         -6.508364   3.54394   -5.447567 C.2        1 UNL1     0.0801
     12 C         -5.779849   6.290294   -5.274946 C.ar        1 UNL1     0.0753
     13 C         -4.931674   5.279087   -4.72117 C.ar        1 UNL1     0.0305
     14 C         -5.340461   3.876922   -4.677827 C.2        1 UNL1     0.0924
     15 N         -6.459258   2.205238   -5.557083 N.pl3        1 UNL1     -0.3170
     16 C         -5.675126   1.703098   -4.460157 C.3        1 UNL1     0.1275
     17 N         -4.733962   2.832848   -4.120158 N.2        1 UNL1     -0.2557
     18 C         -6.611422   1.557517   -3.264391 C.3        1 UNL1     0.0016
     19 C         -7.775651   0.665122   -3.664131 C.3        1 UNL1     0.0026
     20 N         -7.252012   -0.628617   -4.080146 N.3        1 UNL1     -0.3018
     21 C         -6.293538   -0.584829   -5.186392 C.3        1 UNL1     0.0026
     22 C         -5.130366   0.313124   -4.761417 C.3        1 UNL1     0.0016
     23 C         -8.280738   -1.643215   -4.193983 C.3        1 UNL1     0.0012
     24 C         -8.807209   -2.034752   -2.804276 C.3        1 UNL1     -0.0339
     25 C         -10.34342   -2.094589   -2.781221 C.3        1 UNL1     -0.0615
     26 C         -8.18986   -3.351205   -2.3654 C.3        1 UNL1     -0.0615
     27 C         -5.436893   7.638425   -5.203942 C.ar        1 UNL1     0.1347
     28 C         -4.29552   8.098074   -4.571454 C.ar        1 UNL1     0.0342
     29 C         -3.451441   7.08132   -4.076573 C.ar        1 UNL1     0.1435
     30 C         -3.764319   5.724802   -4.172413 C.ar        1 UNL1     0.0774
     31 O         -2.357462   7.370605   -3.338649 O.3        1 UNL1     -0.4436
     32 C         -2.054314   6.150389   -2.645795 C.3        1 UNL1     0.3143
     33 C         -2.683287   5.053711   -3.481201 C.2        1 UNL1     0.2504
     34 C         -3.989453   9.531405   -4.236814 C.3        1 UNL1     -0.0327
     35 O         -0.635165   5.963846   -2.71265 O.2        1 UNL1     -0.4528
     36 C         0.315426   4.072705   0.438231 C.3        1 UNL1     0.0854
     37 C         -0.209712   2.680542   0.961333 C.3        1 UNL1     0.0236
     38 C         0.933005   1.595018   1.257269 C.3        1 UNL1     0.1131
     39 C         2.026557   1.28627   0.156774 C.3        1 UNL1     0.0200
     40 C         1.588753   1.109332   -1.443057 C.3        1 UNL1     0.0661
     41 C         0.34006   0.12136   -2.02811 C.3        1 UNL1     0.0091
     42 C         -0.768523   0.335461   -3.474002 C.3        1 UNL1     0.0661
     43 C         -7.080201   5.863069   -5.848377 C.2        1 UNL1     0.2131
     44 O         -8.033021   6.608835   -5.98514 O.2        1 UNL1     -0.2851
     45 O         -6.295045   8.555052   -5.807934 O.3        1 UNL1     -0.5056
     46 O         -2.352633   3.892615   -3.572731 O.2        1 UNL1     -0.2836
     47 C         0.044368   0.905376   -5.950334 C.3        1 UNL1     -0.0566
     48 O         -0.577774   -1.049243   -3.969304 O.3        1 UNL1     -0.3909
     49 C         -0.528048   -0.307397   -0.866194 C.3        1 UNL1     -0.0577
     50 O         1.559721   2.362424   -2.096236 O.3        1 UNL1     -0.3910
     51 O         1.689778   4.136708   0.130836 O.3        1 UNL1     -0.3753
     52 C         -1.576529   2.291822   0.30891 C.3        1 UNL1     -0.0564
     53 O         0.456197   0.427758   2.0712 O.3        1 UNL1     -0.4608
     54 C         0.839563   -0.875716   1.892552 C.2        1 UNL1     0.3042
     55 O         0.19918   -1.774761   1.348983 O.2        1 UNL1     -0.2512
     56 C         2.228113   -1.167242   2.386165 C.3        1 UNL1     0.0332
     57 C         3.307449   2.186587   0.48376 C.3        1 UNL1     -0.0567
     58 C         -2.788174   6.22522   -1.286612 C.3        1 UNL1     0.0210
     59 C         2.238771   5.453546   0.110644 C.3        1 UNL1     0.0372
     60 C         -0.413631   4.617662   -0.739333 C.2        1 UNL1     -0.0208
     61 C         0.047715   5.1779   -1.858278 C.2        1 UNL1     0.0882
     62 H         -1.207509   2.077294   -4.668253 H        1 UNL1     0.0365
     63 H         -2.639736   2.750021   -5.959142 H        1 UNL1     0.0576
     64 H         -3.80025   0.439559   -7.63597 H        1 UNL1     0.0615
     65 H         -4.507429   3.474528   -7.419817 H        1 UNL1     0.0622
     66 H         0.11782   4.770324   1.264261 H        1 UNL1     0.0645
     67 H         -0.5754   2.897538   1.980031 H        1 UNL1     0.0362
     68 H         1.471413   2.110789   2.066972 H        1 UNL1     0.0741
     69 H         2.488737   0.334577   0.382778 H        1 UNL1     0.0359
     70 H         2.497217   0.613741   -1.835669 H        1 UNL1     0.0600
     71 H         0.90751   -0.808325   -2.229716 H        1 UNL1     0.0348
     72 H         0.094685   0.99263   -3.653769 H        1 UNL1     0.0602
     73 H         -1.455062   4.624385   -0.532874 H        1 UNL1     0.0628
     74 H         1.092362   5.16142   -2.170814 H        1 UNL1     0.1022
     75 H         -6.590168   1.207617   -10.120033 H        1 UNL1     0.0279
     76 H         -7.663414   1.0367   -8.788782 H        1 UNL1     0.0279
     77 H         -7.754547   2.44994   -9.915612 H        1 UNL1     0.0279
     78 H         -8.141368   3.011159   -7.084375 H        1 UNL1     0.1553
     79 H         -7.162881   1.657916   -6.017828 H        1 UNL1     0.1484
     80 H         -6.052126   1.132883   -2.421989 H        1 UNL1     0.0317
     81 H         -6.98025   2.534803   -2.934954 H        1 UNL1     0.0317
     82 H         -8.383276   1.120644   -4.459872 H        1 UNL1     0.0428
     83 H         -8.431684   0.576191   -2.797666 H        1 UNL1     0.0428
     84 H         -5.855737   -1.558794   -5.426252 H        1 UNL1     0.0428
     85 H         -6.767288   -0.266733   -6.125377 H        1 UNL1     0.0428
     86 H         -4.391605   0.215608   -5.535181 H        1 UNL1     0.0317
     87 H         -4.632603   -0.110262   -3.880467 H        1 UNL1     0.0317
     88 H         -9.111144   -1.223729   -4.776866 H        1 UNL1     0.0429
     89 H         -7.915416   -2.521877   -4.741036 H        1 UNL1     0.0429
     90 H         -8.475756   -1.289476   -2.071532 H        1 UNL1     0.0308
     91 H         -10.736844   -2.563428   -3.688145 H        1 UNL1     0.0233
     92 H         -10.695319   -2.650073   -1.908745 H        1 UNL1     0.0233
     93 H         -10.799172   -1.099279   -2.714262 H        1 UNL1     0.0233
     94 H         -8.815521   -3.82578   -1.601749 H        1 UNL1     0.0233
     95 H         -8.121145   -4.033935   -3.21694 H        1 UNL1     0.0233
     96 H         -7.189208   -3.203708   -1.949578 H        1 UNL1     0.0233
     97 H         -3.771439   10.119222   -5.123477 H        1 UNL1     0.0280
     98 H         -4.834375   10.031104   -3.745221 H        1 UNL1     0.0280
     99 H         -3.113583   9.575533   -3.568982 H        1 UNL1     0.0280
     100 H         -6.542242   8.337822   -6.689596 H        1 UNL1     0.2922
     101 H         0.730536   1.723709   -5.733169 H        1 UNL1     0.0236
     102 H         -0.136277   0.795823   -7.019141 H        1 UNL1     0.0236
     103 H         0.595715   -0.00569   -5.663685 H        1 UNL1     0.0236
     104 H         -1.1997   -1.624869   -3.482649 H        1 UNL1     0.2098
     105 H         -1.508847   0.160834   -0.841607 H        1 UNL1     0.0234
     106 H         -0.621164   -1.386101   -0.741069 H        1 UNL1     0.0234
     107 H         0.0   0.0   0.0 H        1 UNL1     0.0234
     108 H         1.027219   2.254306   -2.907728 H        1 UNL1     0.2098
     109 H         -1.510286   2.223144   -0.785899 H        1 UNL1     0.0234
     110 H         -1.995929   1.362695   0.709621 H        1 UNL1     0.0234
     111 H         -2.350797   3.043279   0.513282 H        1 UNL1     0.0234
     112 H         2.478585   -2.215178   2.195275 H        1 UNL1     0.0342
     113 H         2.968083   -0.501858   1.943951 H        1 UNL1     0.0342
     114 H         2.245977   -1.009352   3.473324 H        1 UNL1     0.0342
     115 H         3.646301   2.053527   1.520419 H        1 UNL1     0.0234
     116 H         4.162257   1.995877   -0.168146 H        1 UNL1     0.0234
     117 H         3.099844   3.270324   0.464871 H        1 UNL1     0.0234
     118 H         -3.186515   5.243488   -0.975915 H        1 UNL1     0.0309
     119 H         -2.164129   6.629095   -0.483086 H        1 UNL1     0.0309
     120 H         -3.680737   6.859216   -1.325167 H        1 UNL1     0.0309
     121 H         3.103958   5.439923   -0.551641 H        1 UNL1     0.0524
     122 H         1.52804   6.19707   -0.286939 H        1 UNL1     0.0524
     123 H         2.53762   5.751549   1.111632 H        1 UNL1     0.0524
@<TRIPOS>BOND
     1     1     2    1
     2     1    42    1
     3     2     3    2
     4     3     4    1
     5     4     5    2
     6     5     7    1
     7     6    75    1
     8     6    76    1
     9     6    77    1
    10     7     9   am
    11     9    10    1
    12    10    11    2
    13    10    43    1
    14    11    14    1
    15    11    15    1
    16    12    13   ar
    17    12    27   ar
    18    12    43    1
    19    13    14    1
    20    13    30   ar
    21    14    17    2
    22    15    16    1
    23    16    17    1
    24    16    18    1
    25    16    22    1
    26    18    19    1
    27    19    20    1
    28    20    21    1
    29    21    22    1
    30    23    24    1
    31    23    88    1
    32    23    89    1
    33    24    25    1
    34    24    26    1
    35    24    90    1
    36    25    91    1
    37    25    92    1
    38    25    93    1
    39    26    94    1
    40    26    95    1
    41    26    96    1
    42    27    28   ar
    43    28    29   ar
    44    29    30   ar
    45    29    31    1
    46    30    33    1
    47    31    32    1
    48    32    33    1
    49    32    35    1
    50    34    97    1
    51    34    98    1
    52    34    99    1
    53    35    61    1
    54    36    37    1
    55    36    60    1
    56    37    38    1
    57    38    39    1
    58    39    40    1
    59    40    41    1
    60    41    42    1
    61    45   100    1
    62    47   101    1
    63    47   102    1
    64    47   103    1
    65    48   104    1
    66    49   105    1
    67    49   106    1
    68    49   107    1
    69    50   108    1
    70    51    59    1
    71    52   109    1
    72    52   110    1
    73    52   111    1
    74    53    54    1
    75    54    55    2
    76    54    56    1
    77    56   112    1
    78    56   113    1
    79    56   114    1
    80    57   115    1
    81    57   116    1
    82    57   117    1
    83    58   118    1
    84    58   119    1
    85    58   120    1
    86    59   121    1
    87    59   122    1
    88    59   123    1
    89    60    61    2
    90     1    47    1
    91     1    62    1
    92     2    63    1
    93     3    64    1
    94     4    65    1
    95     5     6    1
    96     7     8    2
    97     9    78    1
    98    15    79    1
    99    18    80    1
   100    18    81    1
   101    19    82    1
   102    19    83    1
   103    20    23    1
   104    21    84    1
   105    21    85    1
   106    22    86    1
   107    22    87    1
   108    27    45    1
   109    28    34    1
   110    32    58    1
   111    33    46    2
   112    36    51    1
   113    36    66    1
   114    37    52    1
   115    37    67    1
   116    38    53    1
   117    38    68    1
   118    42    48    1
   119    42    72    1
   120    43    44    2
   121    60    73    1
   122    61    74    1
   123    39    69    1
   124    39    57    1
   125    40    70    1
   126    40    50    1
   127    41    71    1
   128    41    49    1
