@<TRIPOS>MOLECULE
*****
 123 128 0 0 0
SMALL
GASTEIGER

@<TRIPOS>ATOM
     1 C         5.316163   1.135385   0.493313 C.3        1 UNL1     0.0009
     2 C         6.880848   1.601703   -0.384951 C.2        1 UNL1     -0.0787
     3 C         8.141873   1.226327   -0.989065 C.2        1 UNL1     -0.0649
     4 C         9.22308   2.213466   -1.839305 C.2        1 UNL1     -0.0542
     5 C         10.294684   2.233036   -2.765782 C.2        1 UNL1     0.0115
     6 C         11.3219   1.342896   -3.51798 C.3        1 UNL1     -0.0348
     7 C         10.642047   3.60527   -3.522948 C.2        1 UNL1     0.2441
     8 O         11.581624   4.321275   -3.205054 O.2        1 UNL1     -0.2702
     9 N         9.957822   3.798324   -4.73568 N.am        1 UNL1     -0.2772
     10 C         8.749653   4.417715   -4.512062 C.2        1 UNL1     0.1049
     11 C         7.751425   3.63268   -4.149458 C.2        1 UNL1     0.0801
     12 C         7.704289   6.35804   -3.328979 C.ar        1 UNL1     0.0753
     13 C         6.763158   5.422896   -2.791963 C.ar        1 UNL1     0.0305
     14 C         6.67774   4.051821   -3.289866 C.2        1 UNL1     0.0924
     15 N         7.658655   2.291868   -4.161471 N.pl3        1 UNL1     -0.3170
     16 C         6.302391   1.942281   -3.831941 C.3        1 UNL1     0.1275
     17 N         5.811929   3.089885   -2.983309 N.2        1 UNL1     -0.2557
     18 C         5.494567   1.996367   -5.125075 C.3        1 UNL1     0.0016
     19 C         6.148922   1.079238   -6.145999 C.3        1 UNL1     0.0026
     20 N         6.18339   -0.272846   -5.605899 N.3        1 UNL1     -0.3018
     21 C         6.886872   -0.414697   -4.329435 C.3        1 UNL1     0.0026
     22 C         6.210168   0.51171   -3.317637 C.3        1 UNL1     0.0016
     23 C         6.509137   -1.271055   -6.604954 C.3        1 UNL1     0.0012
     24 C         5.347196   -1.439909   -7.596487 C.3        1 UNL1     -0.0339
     25 C         5.598921   -0.658033   -8.896242 C.3        1 UNL1     -0.0615
     26 C         5.105245   -2.914344   -7.869033 C.3        1 UNL1     -0.0615
     27 C         7.698965   7.694129   -2.935337 C.ar        1 UNL1     0.1347
     28 C         6.778779   8.218605   -2.045262 C.ar        1 UNL1     0.0342
     29 C         5.893054   7.26929   -1.492581 C.ar        1 UNL1     0.1435
     30 C         5.909979   5.92057   -1.850198 C.ar        1 UNL1     0.0774
     31 O         4.868619   7.642056   -0.694719 O.3        1 UNL1     -0.4436
     32 C         3.958367   6.532554   -0.73105 C.3        1 UNL1     0.3143
     33 C         4.805994   5.337214   -1.116931 C.2        1 UNL1     0.2504
     34 C         6.552476   9.678989   -1.769279 C.3        1 UNL1     -0.0327
     35 O         3.506602   6.308109   0.610138 O.2        1 UNL1     -0.4528
     36 C         -6.5e-05   4.887863   0.303099 C.3        1 UNL1     0.0854
     37 C         -0.489891   3.600626   -0.465416 C.3        1 UNL1     0.0236
     38 C         -1.302793   2.547353   0.429878 C.3        1 UNL1     0.1131
     39 C         -0.697986   2.054978   1.806121 C.3        1 UNL1     0.0200
     40 C         0.916159   1.65095   1.923319 C.3        1 UNL1     0.0661
     41 C         1.759156   0.613509   0.878962 C.3        1 UNL1     0.0091
     42 C         3.513329   0.633215   0.342404 C.3        1 UNL1     0.0661
     43 C         8.628691   5.877785   -4.385907 C.2        1 UNL1     0.2131
     44 O         9.183143   6.614865   -5.180913 O.2        1 UNL1     -0.2851
     45 O         8.677652   8.528499   -3.471467 O.3        1 UNL1     -0.5056
     46 O         4.623033   4.1687   -0.858175 O.2        1 UNL1     -0.2836
     47 C         5.610015   0.810435   1.982622 C.3        1 UNL1     -0.0566
     48 O         3.724146   -0.81356   0.590424 O.3        1 UNL1     -0.3909
     49 C         0.921716   0.381156   -0.358859 C.3        1 UNL1     -0.0577
     50 O         1.699421   2.793057   2.205831 O.3        1 UNL1     -0.3910
     51 O         -0.179613   4.876218   1.701333 O.3        1 UNL1     -0.3753
     52 C         0.535936   3.148077   -1.55529 C.3        1 UNL1     -0.0564
     53 O         -2.049706   1.524769   -0.375584 O.3        1 UNL1     -0.4608
     54 C         -2.500438   0.31829   0.092582 C.2        1 UNL1     0.3042
     55 O         -2.092748   -0.801346   -0.214083 O.2        1 UNL1     -0.2512
     56 C         -3.575012   0.441203   1.135125 C.3        1 UNL1     0.0332
     57 C         -1.323891   2.966626   2.961679 C.3        1 UNL1     -0.0567
     58 C         2.95815   6.824603   -1.873767 C.3        1 UNL1     0.0210
     59 C         -0.310231   6.164957   2.299625 C.3        1 UNL1     0.0372
     60 C         1.417835   5.266597   0.055549 C.2        1 UNL1     -0.0208
     61 C         2.372987   5.643953   0.906449 C.2        1 UNL1     0.0882
     62 H         5.005555   2.18656   0.457752 H        1 UNL1     0.0365
     63 H         6.788083   2.68962   -0.402337 H        1 UNL1     0.0576
     64 H         8.439808   0.180208   -1.088946 H        1 UNL1     0.0615
     65 H         8.885356   3.227797   -1.610049 H        1 UNL1     0.0622
     66 H         -0.607026   5.704804   -0.111934 H        1 UNL1     0.0645
     67 H         -1.281733   3.974687   -1.137446 H        1 UNL1     0.0362
     68 H         -2.172393   3.166492   0.698179 H        1 UNL1     0.0741
     69 H         -1.193581   1.138009   2.095881 H        1 UNL1     0.0359
     70 H         0.902136   1.083257   2.873366 H        1 UNL1     0.0600
     71 H         1.627576   -0.347647   1.413585 H        1 UNL1     0.0348
     72 H         3.470052   1.237825   1.25995 H        1 UNL1     0.0602
     73 H         1.585818   5.326069   -0.991109 H        1 UNL1     0.0628
     74 H         2.301179   5.558961   1.99128 H        1 UNL1     0.1022
     75 H         11.164144   0.2659   -3.26853 H        1 UNL1     0.0279
     76 H         11.260657   1.343235   -4.603945 H        1 UNL1     0.0279
     77 H         12.353721   1.497195   -3.169788 H        1 UNL1     0.0279
     78 H         9.764672   2.896673   -5.16672 H        1 UNL1     0.1553
     79 H         8.256728   1.697034   -4.704991 H        1 UNL1     0.1484
     80 H         4.46261   1.690242   -4.915032 H        1 UNL1     0.0317
     81 H         5.445211   3.019422   -5.513112 H        1 UNL1     0.0317
     82 H         7.158274   1.423877   -6.414972 H        1 UNL1     0.0428
     83 H         5.558034   1.134325   -7.060803 H        1 UNL1     0.0428
     84 H         6.829653   -1.422583   -3.906703 H        1 UNL1     0.0428
     85 H         7.964964   -0.230099   -4.434125 H        1 UNL1     0.0428
     86 H         6.661658   0.28436   -2.369767 H        1 UNL1     0.0317
     87 H         5.163763   0.213866   -3.178279 H        1 UNL1     0.0317
     88 H         7.392685   -0.925607   -7.157496 H        1 UNL1     0.0429
     89 H         6.775018   -2.228961   -6.13966 H        1 UNL1     0.0429
     90 H         4.425156   -1.065093   -7.136522 H        1 UNL1     0.0308
     91 H         6.534508   -0.967457   -9.371675 H        1 UNL1     0.0233
     92 H         4.774897   -0.801499   -9.599101 H        1 UNL1     0.0233
     93 H         5.670932   0.423018   -8.726013 H        1 UNL1     0.0233
     94 H         4.415382   -3.034507   -8.711342 H        1 UNL1     0.0233
     95 H         6.046587   -3.405163   -8.131588 H        1 UNL1     0.0233
     96 H         4.676675   -3.416257   -6.997036 H        1 UNL1     0.0233
     97 H         5.741796   9.83969   -1.064863 H        1 UNL1     0.0280
     98 H         7.435225   10.158008   -1.325937 H        1 UNL1     0.0280
     99 H         6.30158   10.197613   -2.709053 H        1 UNL1     0.0280
     100 H         8.346165   9.309397   -3.87882 H        1 UNL1     0.2922
     101 H         4.677361   0.59147   2.502108 H        1 UNL1     0.0236
     102 H         6.185586   1.586978   2.485298 H        1 UNL1     0.0236
     103 H         6.214679   -0.104924   2.095275 H        1 UNL1     0.0236
     104 H         4.095388   -0.907667   1.489476 H        1 UNL1     0.2098
     105 H         0.709357   1.279776   -0.932617 H        1 UNL1     0.0234
     106 H         1.288183   -0.408201   -1.015017 H        1 UNL1     0.0234
     107 H         0.0   -0.0   0.0 H        1 UNL1     0.0234
     108 H         1.63819   3.385508   1.431867 H        1 UNL1     0.2098
     109 H         1.524662   2.926874   -1.129613 H        1 UNL1     0.0234
     110 H         0.189753   2.290806   -2.142648 H        1 UNL1     0.0234
     111 H         0.703712   3.933547   -2.304178 H        1 UNL1     0.0234
     112 H         -3.874095   -0.553143   1.480337 H        1 UNL1     0.0342
     113 H         -3.26571   1.068026   1.970151 H        1 UNL1     0.0342
     114 H         -4.451233   0.914094   0.670609 H        1 UNL1     0.0342
     115 H         -2.420919   2.908137   2.978897 H        1 UNL1     0.0234
     116 H         -0.96621   2.721093   3.963591 H        1 UNL1     0.0234
     117 H         -1.170628   4.047624   2.80076 H        1 UNL1     0.0234
     118 H         2.140092   7.490932   -1.548508 H        1 UNL1     0.0309
     119 H         3.434101   7.249636   -2.76316 H        1 UNL1     0.0309
     120 H         2.431985   5.925218   -2.211945 H        1 UNL1     0.0309
     121 H         0.630684   6.694164   2.151382 H        1 UNL1     0.0524
     122 H         -1.106603   6.765672   1.829551 H        1 UNL1     0.0524
     123 H         -0.522102   6.067063   3.360578 H        1 UNL1     0.0524
@<TRIPOS>BOND
     1     1     2    1
     2     1    42    1
     3     2     3    2
     4     3     4    1
     5     4     5    2
     6     5     7    1
     7     6    75    1
     8     6    76    1
     9     6    77    1
    10     7     9   am
    11     9    10    1
    12    10    11    2
    13    10    43    1
    14    11    14    1
    15    11    15    1
    16    12    13   ar
    17    12    27   ar
    18    12    43    1
    19    13    14    1
    20    13    30   ar
    21    14    17    2
    22    15    16    1
    23    16    17    1
    24    16    18    1
    25    16    22    1
    26    18    19    1
    27    19    20    1
    28    20    21    1
    29    21    22    1
    30    23    24    1
    31    23    88    1
    32    23    89    1
    33    24    25    1
    34    24    26    1
    35    24    90    1
    36    25    91    1
    37    25    92    1
    38    25    93    1
    39    26    94    1
    40    26    95    1
    41    26    96    1
    42    27    28   ar
    43    28    29   ar
    44    29    30   ar
    45    29    31    1
    46    30    33    1
    47    31    32    1
    48    32    33    1
    49    32    35    1
    50    34    97    1
    51    34    98    1
    52    34    99    1
    53    35    61    1
    54    36    37    1
    55    36    60    1
    56    37    38    1
    57    38    39    1
    58    39    40    1
    59    40    41    1
    60    41    42    1
    61    45   100    1
    62    47   101    1
    63    47   102    1
    64    47   103    1
    65    48   104    1
    66    49   105    1
    67    49   106    1
    68    49   107    1
    69    50   108    1
    70    51    59    1
    71    52   109    1
    72    52   110    1
    73    52   111    1
    74    53    54    1
    75    54    55    2
    76    54    56    1
    77    56   112    1
    78    56   113    1
    79    56   114    1
    80    57   115    1
    81    57   116    1
    82    57   117    1
    83    58   118    1
    84    58   119    1
    85    58   120    1
    86    59   121    1
    87    59   122    1
    88    59   123    1
    89    60    61    2
    90     1    47    1
    91     1    62    1
    92     2    63    1
    93     3    64    1
    94     4    65    1
    95     5     6    1
    96     7     8    2
    97     9    78    1
    98    15    79    1
    99    18    80    1
   100    18    81    1
   101    19    82    1
   102    19    83    1
   103    20    23    1
   104    21    84    1
   105    21    85    1
   106    22    86    1
   107    22    87    1
   108    27    45    1
   109    28    34    1
   110    32    58    1
   111    33    46    2
   112    36    51    1
   113    36    66    1
   114    37    52    1
   115    37    67    1
   116    38    53    1
   117    38    68    1
   118    42    48    1
   119    42    72    1
   120    43    44    2
   121    60    73    1
   122    61    74    1
   123    39    69    1
   124    39    57    1
   125    40    70    1
   126    40    50    1
   127    41    71    1
   128    41    49    1
