@<TRIPOS>MOLECULE
*****
 123 128 0 0 0
SMALL
GASTEIGER

@<TRIPOS>ATOM
     1 C         3.748569   3.625528   1.094051 C.3        1 UNL1     0.0009
     2 C         4.239714   5.37019   0.70422 C.2        1 UNL1     -0.0787
     3 C         5.153937   6.310532   0.091031 C.2        1 UNL1     -0.0649
     4 C         4.984723   7.989746   -0.043005 C.2        1 UNL1     -0.0542
     5 C         5.407721   9.147172   -0.741942 C.2        1 UNL1     0.0115
     6 C         6.443845   9.688924   -1.764818 C.3        1 UNL1     -0.0348
     7 C         4.514182   10.477885   -0.653736 C.2        1 UNL1     0.2441
     8 O         4.805458   11.428997   0.058352 O.2        1 UNL1     -0.2702
     9 N         3.519309   10.585804   -1.641022 N.am        1 UNL1     -0.2772
     10 C         2.359342   9.975287   -1.222612 C.2        1 UNL1     0.1049
     11 C         2.295459   8.667338   -1.394106 C.2        1 UNL1     0.0801
     12 C         0.77499   9.838273   0.708292 C.ar        1 UNL1     0.0753
     13 C         0.904559   8.416074   0.612534 C.ar        1 UNL1     0.0305
     14 C         1.566199   7.782971   -0.52609 C.2        1 UNL1     0.0924
     15 N         3.092003   7.84916   -2.10307 N.pl3        1 UNL1     -0.3170
     16 C         2.489345   6.542619   -2.1054 C.3        1 UNL1     0.1275
     17 N         1.689389   6.493223   -0.82659 N.2        1 UNL1     -0.2557
     18 C         1.472362   6.515794   -3.242382 C.3        1 UNL1     0.0016
     19 C         2.180294   6.882917   -4.536849 C.3        1 UNL1     0.0026
     20 N         3.253166   5.926244   -4.770833 N.3        1 UNL1     -0.3018
     21 C         4.249239   5.835244   -3.701288 C.3        1 UNL1     0.0026
     22 C         3.516902   5.46097   -2.411521 C.3        1 UNL1     0.0016
     23 C         3.793717   6.002336   -6.113465 C.3        1 UNL1     0.0012
     24 C         2.775032   5.472778   -7.135036 C.3        1 UNL1     -0.0339
     25 C         1.96941   6.617531   -7.771093 C.3        1 UNL1     -0.0615
     26 C         3.480081   4.633848   -8.186645 C.3        1 UNL1     -0.0615
     27 C         0.039046   10.428593   1.733 C.ar        1 UNL1     0.1347
     28 C         -0.642165   9.701735   2.693042 C.ar        1 UNL1     0.0342
     29 C         -0.46007   8.305062   2.607554 C.ar        1 UNL1     0.1435
     30 C         0.303851   7.701369   1.607954 C.ar        1 UNL1     0.0774
     31 O         -1.145694   7.454981   3.40272 O.3        1 UNL1     -0.4436
     32 C         -1.070586   6.188941   2.730134 C.3        1 UNL1     0.3143
     33 C         0.158597   6.280914   1.848735 C.2        1 UNL1     0.2504
     34 C         -1.649415   10.250837   3.664657 C.3        1 UNL1     -0.0327
     35 O         -0.797482   5.193916   3.724414 O.2        1 UNL1     -0.4528
     36 C         -2.403181   1.994124   2.463007 C.3        1 UNL1     0.0854
     37 C         -2.16359   1.226971   1.105953 C.3        1 UNL1     0.0236
     38 C         -1.751733   -0.314752   1.264729 C.3        1 UNL1     0.1131
     39 C         -0.565014   -0.714892   2.231091 C.3        1 UNL1     0.0200
     40 C         0.848211   0.171126   2.245479 C.3        1 UNL1     0.0661
     41 C         1.756244   0.615611   0.883305 C.3        1 UNL1     0.0091
     42 C         2.778323   2.106255   0.569082 C.3        1 UNL1     0.0661
     43 C         1.37583   10.660708   -0.370991 C.2        1 UNL1     0.2131
     44 O         1.022359   11.79749   -0.626963 O.2        1 UNL1     -0.2851
     45 O         0.00067   11.820613   1.780389 O.3        1 UNL1     -0.5056
     46 O         0.870666   5.385328   1.452833 O.2        1 UNL1     -0.2836
     47 C         4.649797   3.050283   2.219601 C.3        1 UNL1     -0.0566
     48 O         3.938111   1.341392   0.050437 O.3        1 UNL1     -0.3909
     49 C         0.921663   0.383498   -0.35649 C.3        1 UNL1     -0.0577
     50 O         0.745226   1.264449   3.135289 O.3        1 UNL1     -0.3910
     51 O         -2.060649   1.291882   3.636446 O.3        1 UNL1     -0.3753
     52 C         -1.521414   2.151357   0.020564 C.3        1 UNL1     -0.0564
     53 O         -1.872378   -1.102633   -0.00689 O.3        1 UNL1     -0.4608
     54 C         -1.251935   -2.297138   -0.264057 C.2        1 UNL1     0.3042
     55 O         -0.350271   -2.511399   -1.073337 O.2        1 UNL1     -0.2512
     56 C         -1.729265   -3.422889   0.608614 C.3        1 UNL1     0.0332
     57 C         -1.205579   -1.119182   3.639779 C.3        1 UNL1     -0.0567
     58 C         -2.324437   6.096971   1.829618 C.3        1 UNL1     0.0210
     59 C         -2.785377   1.68243   4.801824 C.3        1 UNL1     0.0372
     60 C         -1.749859   3.32824   2.555014 C.2        1 UNL1     -0.0208
     61 C         -1.054522   3.883596   3.548408 C.2        1 UNL1     0.0882
     62 H         2.844709   4.009374   1.582324 H        1 UNL1     0.0365
     63 H         3.468507   5.924137   1.243527 H        1 UNL1     0.0576
     64 H         6.001331   5.975293   -0.511171 H        1 UNL1     0.0615
     65 H         4.172827   8.22601   0.650167 H        1 UNL1     0.0622
     66 H         -3.485145   2.186359   2.484104 H        1 UNL1     0.0645
     67 H         -3.171977   1.140494   0.665231 H        1 UNL1     0.0362
     68 H         -2.663157   -0.699909   1.746894 H        1 UNL1     0.0741
     69 H         -0.22077   -1.706097   1.967621 H        1 UNL1     0.0359
     70 H         1.516416   -0.544081   2.762239 H        1 UNL1     0.0600
     71 H         2.460634   -0.237811   0.833674 H        1 UNL1     0.0348
     72 H         2.659791   2.044415   1.660614 H        1 UNL1     0.0602
     73 H         -2.015809   3.906699   1.705364 H        1 UNL1     0.0628
     74 H         -0.693198   3.344475   4.424782 H        1 UNL1     0.1022
     75 H         7.129454   8.87283   -2.097934 H        1 UNL1     0.0279
     76 H         6.046926   10.060539   -2.706852 H        1 UNL1     0.0279
     77 H         7.153852   10.398688   -1.315569 H        1 UNL1     0.0279
     78 H         3.825855   10.112879   -2.488636 H        1 UNL1     0.1553
     79 H         3.70998   8.164163   -2.828198 H        1 UNL1     0.1484
     80 H         1.026329   5.515519   -3.299576 H        1 UNL1     0.0317
     81 H         0.651277   7.214556   -3.049504 H        1 UNL1     0.0317
     82 H         2.566546   7.912526   -4.511792 H        1 UNL1     0.0428
     83 H         1.436603   6.859467   -5.333983 H        1 UNL1     0.0428
     84 H         4.998363   5.054299   -3.864843 H        1 UNL1     0.0428
     85 H         4.840058   6.757481   -3.613376 H        1 UNL1     0.0428
     86 H         4.286291   5.27356   -1.685639 H        1 UNL1     0.0317
     87 H         3.032354   4.483608   -2.525859 H        1 UNL1     0.0317
     88 H         3.999523   7.056771   -6.339529 H        1 UNL1     0.0429
     89 H         4.747622   5.464815   -6.190339 H        1 UNL1     0.0429
     90 H         2.077985   4.794556   -6.628723 H        1 UNL1     0.0308
     91 H         2.62726   7.346654   -8.2535 H        1 UNL1     0.0233
     92 H         1.262595   6.229379   -8.508223 H        1 UNL1     0.0233
     93 H         1.371545   7.167226   -7.034053 H        1 UNL1     0.0233
     94 H         2.797996   4.415858   -9.015545 H        1 UNL1     0.0233
     95 H         4.336119   5.182164   -8.589772 H        1 UNL1     0.0233
     96 H         3.832325   3.68583   -7.770525 H        1 UNL1     0.0233
     97 H         -2.081422   9.472797   4.286954 H        1 UNL1     0.0280
     98 H         -1.203387   10.976561   4.357218 H        1 UNL1     0.0280
     99 H         -2.465484   10.743592   3.111197 H        1 UNL1     0.0280
     100 H         -0.865525   12.187966   1.799909 H        1 UNL1     0.2922
     101 H         4.325491   2.040514   2.4703 H        1 UNL1     0.0236
     102 H         4.701693   3.693037   3.097756 H        1 UNL1     0.0236
     103 H         5.696948   2.935031   1.893435 H        1 UNL1     0.0236
     104 H         4.553014   1.19638   0.795981 H        1 UNL1     0.2098
     105 H         0.708663   1.282569   -0.929302 H        1 UNL1     0.0234
     106 H         1.290946   -0.404148   -1.013126 H        1 UNL1     0.0234
     107 H         0.0   -0.0   0.0 H        1 UNL1     0.0234
     108 H         0.054906   1.85973   2.784765 H        1 UNL1     0.2098
     109 H         -0.55072   2.555659   0.339947 H        1 UNL1     0.0234
     110 H         -1.411678   1.660602   -0.952504 H        1 UNL1     0.0234
     111 H         -2.152029   3.025021   -0.191527 H        1 UNL1     0.0234
     112 H         -1.190201   -4.341762   0.358757 H        1 UNL1     0.0342
     113 H         -1.63296   -3.189137   1.667825 H        1 UNL1     0.0342
     114 H         -2.794956   -3.590381   0.400253 H        1 UNL1     0.0342
     115 H         -1.910184   -1.956621   3.542735 H        1 UNL1     0.0234
     116 H         -0.470792   -1.394581   4.398918 H        1 UNL1     0.0234
     117 H         -1.859397   -0.338871   4.065899 H        1 UNL1     0.0234
     118 H         -3.21237   5.75393   2.388996 H        1 UNL1     0.0309
     119 H         -2.560991   7.039084   1.324972 H        1 UNL1     0.0309
     120 H         -2.219349   5.347016   1.038019 H        1 UNL1     0.0309
     121 H         -2.554966   2.729234   4.997962 H        1 UNL1     0.0524
     122 H         -3.876362   1.603179   4.66215 H        1 UNL1     0.0524
     123 H         -2.492953   1.06908   5.649399 H        1 UNL1     0.0524
@<TRIPOS>BOND
     1     1     2    1
     2     1    42    1
     3     2     3    2
     4     3     4    1
     5     4     5    2
     6     5     7    1
     7     6    75    1
     8     6    76    1
     9     6    77    1
    10     7     9   am
    11     9    10    1
    12    10    11    2
    13    10    43    1
    14    11    14    1
    15    11    15    1
    16    12    13   ar
    17    12    27   ar
    18    12    43    1
    19    13    14    1
    20    13    30   ar
    21    14    17    2
    22    15    16    1
    23    16    17    1
    24    16    18    1
    25    16    22    1
    26    18    19    1
    27    19    20    1
    28    20    21    1
    29    21    22    1
    30    23    24    1
    31    23    88    1
    32    23    89    1
    33    24    25    1
    34    24    26    1
    35    24    90    1
    36    25    91    1
    37    25    92    1
    38    25    93    1
    39    26    94    1
    40    26    95    1
    41    26    96    1
    42    27    28   ar
    43    28    29   ar
    44    29    30   ar
    45    29    31    1
    46    30    33    1
    47    31    32    1
    48    32    33    1
    49    32    35    1
    50    34    97    1
    51    34    98    1
    52    34    99    1
    53    35    61    1
    54    36    37    1
    55    36    60    1
    56    37    38    1
    57    38    39    1
    58    39    40    1
    59    40    41    1
    60    41    42    1
    61    45   100    1
    62    47   101    1
    63    47   102    1
    64    47   103    1
    65    48   104    1
    66    49   105    1
    67    49   106    1
    68    49   107    1
    69    50   108    1
    70    51    59    1
    71    52   109    1
    72    52   110    1
    73    52   111    1
    74    53    54    1
    75    54    55    2
    76    54    56    1
    77    56   112    1
    78    56   113    1
    79    56   114    1
    80    57   115    1
    81    57   116    1
    82    57   117    1
    83    58   118    1
    84    58   119    1
    85    58   120    1
    86    59   121    1
    87    59   122    1
    88    59   123    1
    89    60    61    2
    90     1    47    1
    91     1    62    1
    92     2    63    1
    93     3    64    1
    94     4    65    1
    95     5     6    1
    96     7     8    2
    97     9    78    1
    98    15    79    1
    99    18    80    1
   100    18    81    1
   101    19    82    1
   102    19    83    1
   103    20    23    1
   104    21    84    1
   105    21    85    1
   106    22    86    1
   107    22    87    1
   108    27    45    1
   109    28    34    1
   110    32    58    1
   111    33    46    2
   112    36    51    1
   113    36    66    1
   114    37    52    1
   115    37    67    1
   116    38    53    1
   117    38    68    1
   118    42    48    1
   119    42    72    1
   120    43    44    2
   121    60    73    1
   122    61    74    1
   123    39    69    1
   124    39    57    1
   125    40    70    1
   126    40    50    1
   127    41    71    1
   128    41    49    1
