@<TRIPOS>MOLECULE
*****
 123 128 0 0 0
SMALL
GASTEIGER

@<TRIPOS>ATOM
     1 C         3.966641   1.042658   -3.631855 C.3        1 UNL1     0.0009
     2 C         5.655772   0.574294   -4.235599 C.2        1 UNL1     -0.0787
     3 C         7.080097   0.825102   -4.302234 C.2        1 UNL1     -0.0649
     4 C         8.275953   -0.146008   -5.00454 C.2        1 UNL1     -0.0542
     5 C         9.662003   -0.436876   -5.041122 C.2        1 UNL1     0.0115
     6 C         11.061063   0.050763   -4.574043 C.3        1 UNL1     -0.0348
     7 C         10.146172   -1.835265   -5.663278 C.2        1 UNL1     0.2441
     8 O         10.619553   -1.935355   -6.786852 O.2        1 UNL1     -0.2702
     9 N         10.233138   -2.891947   -4.740235 N.am        1 UNL1     -0.2772
     10 C         9.024591   -3.541965   -4.639171 C.2        1 UNL1     0.1049
     11 C         8.135473   -2.995145   -3.830049 C.2        1 UNL1     0.0801
     12 C         7.2019   -4.565607   -6.012956 C.ar        1 UNL1     0.0753
     13 C         6.286287   -3.785557   -5.237209 C.ar        1 UNL1     0.0305
     14 C         6.714452   -3.075559   -4.034035 C.2        1 UNL1     0.0924
     15 N         8.282136   -2.016992   -2.919976 N.pl3        1 UNL1     -0.3170
     16 C         7.049709   -1.912399   -2.184832 C.3        1 UNL1     0.1275
     17 N         5.992887   -2.394402   -3.14843 N.2        1 UNL1     -0.2557
     18 C         7.103094   -2.945447   -1.063376 C.3        1 UNL1     0.0016
     19 C         8.352371   -2.697701   -0.233004 C.3        1 UNL1     0.0026
     20 N         8.296985   -1.344731   0.303126 N.3        1 UNL1     -0.3018
     21 C         8.181979   -0.283122   -0.698936 C.3        1 UNL1     0.0026
     22 C         6.918083   -0.549245   -1.518473 C.3        1 UNL1     0.0016
     23 C         9.279368   -1.109314   1.342426 C.3        1 UNL1     0.0012
     24 C         8.912067   -1.885955   2.616661 C.3        1 UNL1     -0.0339
     25 C         9.319488   -1.114347   3.882634 C.3        1 UNL1     -0.0615
     26 C         7.4296   -2.216215   2.616134 C.3        1 UNL1     -0.0615
     27 C         6.763497   -5.336009   -7.087387 C.ar        1 UNL1     0.1347
     28 C         5.433633   -5.43694   -7.455251 C.ar        1 UNL1     0.0342
     29 C         4.556718   -4.622176   -6.708027 C.ar        1 UNL1     0.1435
     30 C         4.986536   -3.81749   -5.652111 C.ar        1 UNL1     0.0774
     31 O         3.217665   -4.691896   -6.872596 O.3        1 UNL1     -0.4436
     32 C         2.674606   -4.117994   -5.674016 C.3        1 UNL1     0.3143
     33 C         3.772362   -3.226999   -5.128788 C.2        1 UNL1     0.2504
     34 C         4.860734   -6.430098   -8.427631 C.3        1 UNL1     -0.0327
     35 O         1.595536   -3.259536   -6.063772 O.2        1 UNL1     -0.4528
     36 C         -0.862324   -3.298849   -3.171461 C.3        1 UNL1     0.0854
     37 C         -0.626414   -2.921663   -1.658319 C.3        1 UNL1     0.0236
     38 C         -1.618119   -1.802896   -1.078124 C.3        1 UNL1     0.1131
     39 C         -1.81275   -0.443142   -1.862634 C.3        1 UNL1     0.0200
     40 C         -0.497879   0.357076   -2.505443 C.3        1 UNL1     0.0661
     41 C         0.937499   0.731011   -1.682355 C.3        1 UNL1     0.0091
     42 C         2.662491   0.854913   -2.294281 C.3        1 UNL1     0.0661
     43 C         8.621029   -4.597447   -5.580154 C.2        1 UNL1     0.2131
     44 O         9.397122   -5.485715   -5.882475 O.2        1 UNL1     -0.2851
     45 O         7.725418   -6.029732   -7.818752 O.3        1 UNL1     -0.5056
     46 O         3.667016   -2.239162   -4.436738 O.2        1 UNL1     -0.2836
     47 C         3.428749   2.262543   -4.427176 C.3        1 UNL1     -0.0566
     48 O         2.928709   2.149601   -1.621952 O.3        1 UNL1     -0.3909
     49 C         0.981991   -0.060766   -0.394487 C.3        1 UNL1     -0.0577
     50 O         -0.200658   -0.126448   -3.799888 O.3        1 UNL1     -0.3910
     51 O         -1.78558   -2.494555   -3.870132 O.3        1 UNL1     -0.3753
     52 C         0.889254   -2.967507   -1.276745 C.3        1 UNL1     -0.0564
     53 O         -1.613649   -1.71504   0.420071 O.3        1 UNL1     -0.4608
     54 C         -1.714027   -0.559003   1.149066 C.2        1 UNL1     0.3042
     55 O         -0.806834   0.045154   1.719883 O.2        1 UNL1     -0.2512
     56 C         -3.100586   0.018587   1.172716 C.3        1 UNL1     0.0332
     57 C         -3.112959   -0.59811   -2.781121 C.3        1 UNL1     -0.0567
     58 C         2.449189   -5.290286   -4.690935 C.3        1 UNL1     0.0210
     59 C         -3.029064   -3.12855   -4.166212 C.3        1 UNL1     0.0372
     60 C         0.369974   -3.35974   -4.003864 C.2        1 UNL1     -0.0208
     61 C         0.613598   -2.879387   -5.223968 C.2        1 UNL1     0.0882
     62 H         3.564371   0.147691   -4.121677 H        1 UNL1     0.0365
     63 H         5.41497   -0.279994   -4.87174 H        1 UNL1     0.0576
     64 H         7.546671   1.63128   -3.731714 H        1 UNL1     0.0615
     65 H         7.710007   -0.860743   -5.608148 H        1 UNL1     0.0622
     66 H         -1.257033   -4.32422   -3.142026 H        1 UNL1     0.0645
     67 H         -0.957411   -3.817102   -1.10407 H        1 UNL1     0.0362
     68 H         -2.57565   -2.336588   -1.177273 H        1 UNL1     0.0741
     69 H         -2.23054   0.291565   -1.187306 H        1 UNL1     0.0359
     70 H         -0.947225   1.35361   -2.67884 H        1 UNL1     0.0600
     71 H         0.687019   1.742502   -1.306718 H        1 UNL1     0.0348
     72 H         2.018943   0.941226   -3.181812 H        1 UNL1     0.0602
     73 H         1.080285   -3.991179   -3.530587 H        1 UNL1     0.0628
     74 H         -0.03551   -2.180379   -5.75244 H        1 UNL1     0.1022
     75 H         11.295217   1.049816   -5.014612 H        1 UNL1     0.0279
     76 H         11.181113   0.230845   -3.508104 H        1 UNL1     0.0279
     77 H         11.881164   -0.56145   -4.976945 H        1 UNL1     0.0279
     78 H         10.460811   -2.523578   -3.819069 H        1 UNL1     0.1553
     79 H         9.167821   -1.739041   -2.538873 H        1 UNL1     0.1484
     80 H         6.194478   -2.860167   -0.455173 H        1 UNL1     0.0317
     81 H         7.114545   -3.962869   -1.468805 H        1 UNL1     0.0317
     82 H         9.2692   -2.853465   -0.820434 H        1 UNL1     0.0428
     83 H         8.371619   -3.446296   0.559639 H        1 UNL1     0.0428
     84 H         8.061926   0.71571   -0.267968 H        1 UNL1     0.0428
     85 H         9.089039   -0.201214   -1.313632 H        1 UNL1     0.0428
     86 H         6.794531   0.312295   -2.148132 H        1 UNL1     0.0317
     87 H         6.035737   -0.516616   -0.867707 H        1 UNL1     0.0317
     88 H         10.251514   -1.469765   0.981452 H        1 UNL1     0.0429
     89 H         9.390834   -0.037344   1.55034 H        1 UNL1     0.0429
     90 H         9.433772   -2.85033   2.61246 H        1 UNL1     0.0308
     91 H         9.12425   -1.700389   4.785706 H        1 UNL1     0.0233
     92 H         10.378811   -0.849151   3.849242 H        1 UNL1     0.0233
     93 H         8.771289   -0.170659   3.991095 H        1 UNL1     0.0233
     94 H         7.085704   -2.411147   3.637688 H        1 UNL1     0.0233
     95 H         6.858455   -1.370128   2.22384 H        1 UNL1     0.0233
     96 H         7.217558   -3.098571   2.005844 H        1 UNL1     0.0233
     97 H         3.776018   -6.389991   -8.459461 H        1 UNL1     0.0280
     98 H         5.198609   -6.244922   -9.455642 H        1 UNL1     0.0280
     99 H         5.160365   -7.449368   -8.133682 H        1 UNL1     0.0280
     100 H         7.525759   -6.937482   -7.966229 H        1 UNL1     0.2922
     101 H         2.3441   2.312846   -4.334104 H        1 UNL1     0.0236
     102 H         3.750784   2.271488   -5.467943 H        1 UNL1     0.0236
     103 H         3.789815   3.218753   -4.013068 H        1 UNL1     0.0236
     104 H         2.15674   2.353607   -1.058556 H        1 UNL1     0.2098
     105 H         1.224746   -1.112705   -0.52218 H        1 UNL1     0.0234
     106 H         1.600951   0.377449   0.388318 H        1 UNL1     0.0234
     107 H         0.0   0.0   0.0 H        1 UNL1     0.0234
     108 H         0.714109   -0.467824   -3.779088 H        1 UNL1     0.2098
     109 H         1.322697   -3.968001   -1.414045 H        1 UNL1     0.0234
     110 H         1.491744   -2.229792   -1.8176 H        1 UNL1     0.0234
     111 H         1.04815   -2.717291   -0.219347 H        1 UNL1     0.0234
     112 H         -3.352717   0.339686   2.187936 H        1 UNL1     0.0342
     113 H         -3.215259   0.837478   0.464118 H        1 UNL1     0.0342
     114 H         -3.806685   -0.77232   0.884521 H        1 UNL1     0.0342
     115 H         -3.645764   0.355525   -2.898961 H        1 UNL1     0.0234
     116 H         -2.906571   -0.984684   -3.781127 H        1 UNL1     0.0234
     117 H         -3.898938   -1.226825   -2.328467 H        1 UNL1     0.0234
     118 H         1.380658   -5.551022   -4.594672 H        1 UNL1     0.0309
     119 H         3.014569   -6.188997   -4.957142 H        1 UNL1     0.0309
     120 H         2.741689   -5.040799   -3.665115 H        1 UNL1     0.0309
     121 H         -3.445544   -2.641981   -5.047774 H        1 UNL1     0.0524
     122 H         -2.907026   -4.198404   -4.404031 H        1 UNL1     0.0524
     123 H         -3.710778   -3.029616   -3.326228 H        1 UNL1     0.0524
@<TRIPOS>BOND
     1     1     2    1
     2     1    42    1
     3     2     3    2
     4     3     4    1
     5     4     5    2
     6     5     7    1
     7     6    75    1
     8     6    76    1
     9     6    77    1
    10     7     9   am
    11     9    10    1
    12    10    11    2
    13    10    43    1
    14    11    14    1
    15    11    15    1
    16    12    13   ar
    17    12    27   ar
    18    12    43    1
    19    13    14    1
    20    13    30   ar
    21    14    17    2
    22    15    16    1
    23    16    17    1
    24    16    18    1
    25    16    22    1
    26    18    19    1
    27    19    20    1
    28    20    21    1
    29    21    22    1
    30    23    24    1
    31    23    88    1
    32    23    89    1
    33    24    25    1
    34    24    26    1
    35    24    90    1
    36    25    91    1
    37    25    92    1
    38    25    93    1
    39    26    94    1
    40    26    95    1
    41    26    96    1
    42    27    28   ar
    43    28    29   ar
    44    29    30   ar
    45    29    31    1
    46    30    33    1
    47    31    32    1
    48    32    33    1
    49    32    35    1
    50    34    97    1
    51    34    98    1
    52    34    99    1
    53    35    61    1
    54    36    37    1
    55    36    60    1
    56    37    38    1
    57    38    39    1
    58    39    40    1
    59    40    41    1
    60    41    42    1
    61    45   100    1
    62    47   101    1
    63    47   102    1
    64    47   103    1
    65    48   104    1
    66    49   105    1
    67    49   106    1
    68    49   107    1
    69    50   108    1
    70    51    59    1
    71    52   109    1
    72    52   110    1
    73    52   111    1
    74    53    54    1
    75    54    55    2
    76    54    56    1
    77    56   112    1
    78    56   113    1
    79    56   114    1
    80    57   115    1
    81    57   116    1
    82    57   117    1
    83    58   118    1
    84    58   119    1
    85    58   120    1
    86    59   121    1
    87    59   122    1
    88    59   123    1
    89    60    61    2
    90     1    47    1
    91     1    62    1
    92     2    63    1
    93     3    64    1
    94     4    65    1
    95     5     6    1
    96     7     8    2
    97     9    78    1
    98    15    79    1
    99    18    80    1
   100    18    81    1
   101    19    82    1
   102    19    83    1
   103    20    23    1
   104    21    84    1
   105    21    85    1
   106    22    86    1
   107    22    87    1
   108    27    45    1
   109    28    34    1
   110    32    58    1
   111    33    46    2
   112    36    51    1
   113    36    66    1
   114    37    52    1
   115    37    67    1
   116    38    53    1
   117    38    68    1
   118    42    48    1
   119    42    72    1
   120    43    44    2
   121    60    73    1
   122    61    74    1
   123    39    69    1
   124    39    57    1
   125    40    70    1
   126    40    50    1
   127    41    71    1
   128    41    49    1
