@<TRIPOS>MOLECULE
*****
 123 128 0 0 0
SMALL
GASTEIGER

@<TRIPOS>ATOM
     1 C         5.158019   1.785501   0.453976 C.3        1 UNL1     0.0009
     2 C         6.581593   2.604878   -0.40573 C.2        1 UNL1     -0.0787
     3 C         7.858582   2.518267   -1.082373 C.2        1 UNL1     -0.0649
     4 C         8.720571   3.762205   -1.841286 C.2        1 UNL1     -0.0542
     5 C         9.730567   4.065322   -2.787386 C.2        1 UNL1     0.0115
     6 C         10.856116   3.450953   -3.66432 C.3        1 UNL1     -0.0348
     7 C         9.809903   5.551124   -3.389952 C.2        1 UNL1     0.2441
     8 O         10.630808   6.377676   -3.016518 O.2        1 UNL1     -0.2702
     9 N         9.048464   5.756167   -4.553704 N.am        1 UNL1     -0.2772
     10 C         7.765582   6.132353   -4.228098 C.2        1 UNL1     0.1049
     11 C         6.92945   5.153795   -3.932244 C.2        1 UNL1     0.0801
     12 C         6.467136   7.72494   -2.801551 C.ar        1 UNL1     0.0753
     13 C         5.720176   6.590044   -2.351363 C.ar        1 UNL1     0.0305
     14 C         5.841376   5.28726   -3.001836 C.2        1 UNL1     0.0924
     15 N         7.060554   3.826263   -4.09656 N.pl3        1 UNL1     -0.3170
     16 C         5.79781   3.216724   -3.773767 C.3        1 UNL1     0.1275
     17 N         5.162544   4.164163   -2.785576 N.2        1 UNL1     -0.2557
     18 C         4.93407   3.273404   -5.030128 C.3        1 UNL1     0.0016
     19 C         5.684571   2.598439   -6.167124 C.3        1 UNL1     0.0026
     20 N         5.968082   1.221184   -5.787893 N.3        1 UNL1     -0.3018
     21 C         6.742883   1.062597   -4.555455 C.3        1 UNL1     0.0026
     22 C         5.968408   1.743836   -3.425854 C.3        1 UNL1     0.0016
     23 C         6.409385   0.408419   -6.903827 C.3        1 UNL1     0.0012
     24 C         5.247687   0.153443   -7.877069 C.3        1 UNL1     -0.0339
     25 C         5.256144   1.160402   -9.038972 C.3        1 UNL1     -0.0615
     26 C         5.293542   -1.27938   -8.378762 C.3        1 UNL1     -0.0615
     27 C         6.257614   8.989398   -2.256238 C.ar        1 UNL1     0.1347
     28 C         5.304609   9.248845   -1.287467 C.ar        1 UNL1     0.0342
     29 C         4.615297   8.1078   -0.824831 C.ar        1 UNL1     0.1435
     30 C         4.839991   6.829012   -1.336138 C.ar        1 UNL1     0.0774
     31 O         3.580631   8.210995   0.03762 O.3        1 UNL1     -0.4436
     32 C         2.866919   6.973309   -0.102455 C.3        1 UNL1     0.3143
     33 C         3.883061   5.989399   -0.646138 C.2        1 UNL1     0.2504
     34 C         4.851375   10.610224   -0.838772 C.3        1 UNL1     -0.0327
     35 O         2.520482   6.529861   1.215341 O.2        1 UNL1     -0.4528
     36 C         -0.711397   4.574936   0.839414 C.3        1 UNL1     0.0854
     37 C         -1.014842   3.314917   -0.05936 C.3        1 UNL1     0.0236
     38 C         -1.599491   2.047017   0.729538 C.3        1 UNL1     0.1131
     39 C         -0.859025   1.517438   2.023187 C.3        1 UNL1     0.0200
     40 C         0.803482   1.384081   2.050105 C.3        1 UNL1     0.0661
     41 C         1.75874   0.626012   0.870943 C.3        1 UNL1     0.0091
     42 C         3.45885   1.002961   0.293934 C.3        1 UNL1     0.0661
     43 C         7.409322   7.527763   -3.931004 C.2        1 UNL1     0.2131
     44 O         7.796568   8.431003   -4.649986 O.2        1 UNL1     -0.2851
     45 O         7.058371   10.031913   -2.718179 O.3        1 UNL1     -0.5056
     46 O         3.909024   4.785616   -0.519304 O.2        1 UNL1     -0.2836
     47 C         5.569502   1.354517   1.887474 C.3        1 UNL1     -0.0566
     48 O         3.918486   -0.405029   0.367532 O.3        1 UNL1     -0.3909
     49 C         0.915998   0.39109   -0.362788 C.3        1 UNL1     -0.0577
     50 O         1.397921   2.605134   2.44176 O.3        1 UNL1     -0.3910
     51 O         -0.822492   4.380038   2.231213 O.3        1 UNL1     -0.3753
     52 C         0.021137   3.165759   -1.221018 C.3        1 UNL1     -0.0564
     53 O         -2.201878   1.006389   -0.168542 O.3        1 UNL1     -0.4608
     54 C         -2.411707   -0.306245   0.164466 C.2        1 UNL1     0.3042
     55 O         -1.83584   -1.293562   -0.29097 O.2        1 UNL1     -0.2512
     56 C         -3.430906   -0.495333   1.251752 C.3        1 UNL1     0.0332
     57 C         -1.574445   2.177164   3.292483 C.3        1 UNL1     -0.0567
     58 C         1.780953   7.213782   -1.176876 C.3        1 UNL1     0.0210
     59 C         -1.169113   5.54781   2.974199 C.3        1 UNL1     0.0372
     60 C         0.610952   5.214559   0.599755 C.2        1 UNL1     -0.0208
     61 C         1.527859   5.653851   1.462918 C.2        1 UNL1     0.0882
     62 H         4.67559   2.765846   0.548299 H        1 UNL1     0.0365
     63 H         6.308461   3.656345   -0.294894 H        1 UNL1     0.0576
     64 H         8.321504   1.555522   -1.310263 H        1 UNL1     0.0615
     65 H         8.22965   4.672891   -1.487548 H        1 UNL1     0.0622
     66 H         -1.464095   5.316884   0.537744 H        1 UNL1     0.0645
     67 H         -1.887713   3.619751   -0.662462 H        1 UNL1     0.0362
     68 H         -2.546797   2.475776   1.090508 H        1 UNL1     0.0741
     69 H         -1.181436   0.503313   2.218148 H        1 UNL1     0.0359
     70 H         0.927466   0.721875   2.928269 H        1 UNL1     0.0600
     71 H         1.813414   -0.396118   1.294287 H        1 UNL1     0.0348
     72 H         3.357534   1.487338   1.275988 H        1 UNL1     0.0602
     73 H         0.718748   5.415879   -0.437115 H        1 UNL1     0.0628
     74 H         1.520784   5.439758   2.532194 H        1 UNL1     0.1022
     75 H         10.910027   2.345566   -3.515161 H        1 UNL1     0.0279
     76 H         10.732892   3.53623   -4.741637 H        1 UNL1     0.0279
     77 H         11.861602   3.762082   -3.345105 H        1 UNL1     0.0279
     78 H         8.988514   4.887408   -5.080716 H        1 UNL1     0.1553
     79 H         7.723796   3.40512   -4.720804 H        1 UNL1     0.1484
     80 H         3.97809   2.774767   -4.829558 H        1 UNL1     0.0317
     81 H         4.697566   4.309282   -5.295972 H        1 UNL1     0.0317
     82 H         6.609188   3.137383   -6.421162 H        1 UNL1     0.0428
     83 H         5.051618   2.651704   -7.053456 H        1 UNL1     0.0428
     84 H         6.873469   0.019615   -4.250582 H        1 UNL1     0.0428
     85 H         7.76933   1.438567   -4.666672 H        1 UNL1     0.0428
     86 H         6.494215   1.494502   -2.522889 H        1 UNL1     0.0317
     87 H         4.993592   1.258574   -3.294133 H        1 UNL1     0.0317
     88 H         7.197006   0.957721   -7.436006 H        1 UNL1     0.0429
     89 H         6.851859   -0.535203   -6.559487 H        1 UNL1     0.0429
     90 H         4.29853   0.25145   -7.336968 H        1 UNL1     0.0308
     91 H         6.200812   1.1242   -9.589785 H        1 UNL1     0.0233
     92 H         4.431556   0.962377   -9.727774 H        1 UNL1     0.0233
     93 H         5.126972   2.194277   -8.696552 H        1 UNL1     0.0233
     94 H         4.591298   -1.411533   -9.208957 H        1 UNL1     0.0233
     95 H         6.296678   -1.515106   -8.744977 H        1 UNL1     0.0233
     96 H         5.030974   -1.987666   -7.587967 H        1 UNL1     0.0233
     97 H         4.06462   10.552288   -0.092522 H        1 UNL1     0.0280
     98 H         5.663776   11.184823   -0.374987 H        1 UNL1     0.0280
     99 H         4.466302   11.174653   -1.703777 H        1 UNL1     0.0280
     100 H         6.583131   10.779775   -3.035154 H        1 UNL1     0.2922
     101 H         4.714153   0.912943   2.398403 H        1 UNL1     0.0236
     102 H         6.019135   2.161391   2.4652 H        1 UNL1     0.0236
     103 H         6.33162   0.557479   1.877564 H        1 UNL1     0.0236
     104 H         4.346205   -0.530598   1.237164 H        1 UNL1     0.2098
     105 H         0.69195   1.290084   -0.931492 H        1 UNL1     0.0234
     106 H         1.285712   -0.392148   -1.024435 H        1 UNL1     0.0234
     107 H         0.0   -0.0   0.0 H        1 UNL1     0.0234
     108 H         1.188743   3.26403   1.751928 H        1 UNL1     0.2098
     109 H         1.049915   3.058709   -0.849714 H        1 UNL1     0.0234
     110 H         -0.210849   2.339057   -1.901083 H        1 UNL1     0.0234
     111 H         0.030367   4.050712   -1.871186 H        1 UNL1     0.0234
     112 H         -3.546527   -1.560864   1.472253 H        1 UNL1     0.0342
     113 H         -3.17903   0.064674   2.151082 H        1 UNL1     0.0342
     114 H         -4.396641   -0.120439   0.885725 H        1 UNL1     0.0342
     115 H         -2.636126   1.900701   3.352401 H        1 UNL1     0.0234
     116 H         -1.113009   1.91702   4.247183 H        1 UNL1     0.0234
     117 H         -1.643536   3.277161   3.236142 H        1 UNL1     0.0234
     118 H         0.879777   7.692726   -0.755567 H        1 UNL1     0.0309
     119 H         2.138903   7.807089   -2.024261 H        1 UNL1     0.0309
     120 H         1.395745   6.280282   -1.601492 H        1 UNL1     0.0309
     121 H         -0.3714   6.276721   2.833844 H        1 UNL1     0.0524
     122 H         -2.105705   6.007878   2.61759 H        1 UNL1     0.0524
     123 H         -1.274248   5.305422   4.027901 H        1 UNL1     0.0524
@<TRIPOS>BOND
     1     1     2    1
     2     1    42    1
     3     2     3    2
     4     3     4    1
     5     4     5    2
     6     5     7    1
     7     6    75    1
     8     6    76    1
     9     6    77    1
    10     7     9   am
    11     9    10    1
    12    10    11    2
    13    10    43    1
    14    11    14    1
    15    11    15    1
    16    12    13   ar
    17    12    27   ar
    18    12    43    1
    19    13    14    1
    20    13    30   ar
    21    14    17    2
    22    15    16    1
    23    16    17    1
    24    16    18    1
    25    16    22    1
    26    18    19    1
    27    19    20    1
    28    20    21    1
    29    21    22    1
    30    23    24    1
    31    23    88    1
    32    23    89    1
    33    24    25    1
    34    24    26    1
    35    24    90    1
    36    25    91    1
    37    25    92    1
    38    25    93    1
    39    26    94    1
    40    26    95    1
    41    26    96    1
    42    27    28   ar
    43    28    29   ar
    44    29    30   ar
    45    29    31    1
    46    30    33    1
    47    31    32    1
    48    32    33    1
    49    32    35    1
    50    34    97    1
    51    34    98    1
    52    34    99    1
    53    35    61    1
    54    36    37    1
    55    36    60    1
    56    37    38    1
    57    38    39    1
    58    39    40    1
    59    40    41    1
    60    41    42    1
    61    45   100    1
    62    47   101    1
    63    47   102    1
    64    47   103    1
    65    48   104    1
    66    49   105    1
    67    49   106    1
    68    49   107    1
    69    50   108    1
    70    51    59    1
    71    52   109    1
    72    52   110    1
    73    52   111    1
    74    53    54    1
    75    54    55    2
    76    54    56    1
    77    56   112    1
    78    56   113    1
    79    56   114    1
    80    57   115    1
    81    57   116    1
    82    57   117    1
    83    58   118    1
    84    58   119    1
    85    58   120    1
    86    59   121    1
    87    59   122    1
    88    59   123    1
    89    60    61    2
    90     1    47    1
    91     1    62    1
    92     2    63    1
    93     3    64    1
    94     4    65    1
    95     5     6    1
    96     7     8    2
    97     9    78    1
    98    15    79    1
    99    18    80    1
   100    18    81    1
   101    19    82    1
   102    19    83    1
   103    20    23    1
   104    21    84    1
   105    21    85    1
   106    22    86    1
   107    22    87    1
   108    27    45    1
   109    28    34    1
   110    32    58    1
   111    33    46    2
   112    36    51    1
   113    36    66    1
   114    37    52    1
   115    37    67    1
   116    38    53    1
   117    38    68    1
   118    42    48    1
   119    42    72    1
   120    43    44    2
   121    60    73    1
   122    61    74    1
   123    39    69    1
   124    39    57    1
   125    40    70    1
   126    40    50    1
   127    41    71    1
   128    41    49    1
