@<TRIPOS>MOLECULE
*****
 123 128 0 0 0
SMALL
GASTEIGER

@<TRIPOS>ATOM
     1 C         -3.637109   0.5399   1.871476 C.3        1 UNL1     0.0009
     2 C         -4.327031   2.110485   2.574547 C.2        1 UNL1     -0.0787
     3 C         -4.555433   2.98734   3.703707 C.2        1 UNL1     -0.0649
     4 C         -5.232571   4.539042   3.695954 C.2        1 UNL1     -0.0542
     5 C         -5.357745   5.754782   4.412464 C.2        1 UNL1     0.0115
     6 C         -5.087489   6.441184   5.779628 C.3        1 UNL1     -0.0348
     7 C         -5.835445   7.072296   3.629553 C.2        1 UNL1     0.2441
     8 O         -6.975157   7.511288   3.699315 O.2        1 UNL1     -0.2702
     9 N         -4.795335   7.833942   3.069001 N.am        1 UNL1     -0.2772
     10 C         -4.50103   7.385709   1.801802 C.2        1 UNL1     0.1049
     11 C         -3.691582   6.34491   1.725945 C.2        1 UNL1     0.0801
     12 C         -5.558514   6.771048   -0.380227 C.ar        1 UNL1     0.0753
     13 C         -4.809763   5.553214   -0.310529 C.ar        1 UNL1     0.0305
     14 C         -3.752726   5.360509   0.679718 C.2        1 UNL1     0.0924
     15 N         -2.932902   5.769691   2.674658 N.pl3        1 UNL1     -0.3170
     16 C         -2.107929   4.778523   2.036489 C.3        1 UNL1     0.1275
     17 N         -2.900447   4.349949   0.82572 N.2        1 UNL1     -0.2557
     18 C         -0.871899   5.49532   1.501575 C.3        1 UNL1     0.0016
     19 C         -0.198219   6.226956   2.651555 C.3        1 UNL1     0.0026
     20 N         0.161226   5.25686   3.676612 N.3        1 UNL1     -0.3018
     21 C         -0.954979   4.47294   4.209457 C.3        1 UNL1     0.0026
     22 C         -1.614248   3.742816   3.038057 C.3        1 UNL1     0.0016
     23 C         1.067185   5.796547   4.670906 C.3        1 UNL1     0.0012
     24 C         2.342868   6.332917   4.002552 C.3        1 UNL1     -0.0339
     25 C         2.027173   7.476957   3.025021 C.3        1 UNL1     -0.0615
     26 C         3.344191   6.762175   5.060791 C.3        1 UNL1     -0.0615
     27 C         -6.479684   6.994536   -1.400824 C.ar        1 UNL1     0.1347
     28 C         -6.708316   6.094412   -2.426278 C.ar        1 UNL1     0.0342
     29 C         -5.995753   4.882026   -2.309923 C.ar        1 UNL1     0.1435
     30 C         -5.096514   4.629358   -1.273222 C.ar        1 UNL1     0.0774
     31 O         -6.026852   3.949719   -3.287084 O.3        1 UNL1     -0.4436
     32 C         -4.867989   3.136446   -3.049396 C.3        1 UNL1     0.3143
     33 C         -4.545199   3.326266   -1.581068 C.2        1 UNL1     0.2504
     34 C         -7.487622   6.368197   -3.682393 C.3        1 UNL1     -0.0327
     35 O         -5.265236   1.769803   -3.215937 O.2        1 UNL1     -0.4528
     36 C         -2.179713   -0.068532   -4.444009 C.3        1 UNL1     0.0854
     37 C         -0.756007   -0.183006   -3.775071 C.3        1 UNL1     0.0236
     38 C         -0.237192   -1.682483   -3.54238 C.3        1 UNL1     0.1131
     39 C         -1.169873   -2.731756   -2.813406 C.3        1 UNL1     0.0200
     40 C         -2.02823   -2.296053   -1.451119 C.3        1 UNL1     0.0661
     41 C         -1.39507   -1.513278   -0.085842 C.3        1 UNL1     0.0091
     42 C         -2.172946   -0.318142   1.068264 C.3        1 UNL1     0.0661
     43 C         -5.25675   7.825452   0.619488 C.2        1 UNL1     0.2131
     44 O         -5.511303   9.004387   0.451997 O.2        1 UNL1     -0.2851
     45 O         -7.200011   8.186851   -1.369987 O.3        1 UNL1     -0.5056
     46 O         -3.980013   2.564027   -0.829131 O.2        1 UNL1     -0.2836
     47 C         -4.531005   -0.666228   2.266683 C.3        1 UNL1     -0.0566
     48 O         -1.700874   -1.01543   2.288942 O.3        1 UNL1     -0.3909
     49 C         -0.025119   -0.970235   -0.426184 C.3        1 UNL1     -0.0577
     50 O         -3.270969   -1.722591   -1.803914 O.3        1 UNL1     -0.3910
     51 O         -2.88921   -1.277555   -4.593368 O.3        1 UNL1     -0.3753
     52 C         -0.511837   0.952848   -2.72857 C.3        1 UNL1     -0.0564
     53 O         1.230326   -1.770201   -3.24068 O.3        1 UNL1     -0.4608
     54 C         2.199075   -2.183021   -4.117626 C.2        1 UNL1     0.3042
     55 O         2.590371   -1.598997   -5.127399 O.2        1 UNL1     -0.2512
     56 C         2.860193   -3.4721   -3.720247 C.3        1 UNL1     0.0332
     57 C         -1.937901   -3.561903   -3.944407 C.3        1 UNL1     -0.0567
     58 C         -3.725099   3.745956   -3.89428 C.3        1 UNL1     0.0210
     59 C         -2.095438   -2.392425   -4.996922 C.3        1 UNL1     0.0372
     60 C         -3.106357   0.894919   -3.789599 C.2        1 UNL1     -0.0208
     61 C         -4.395454   0.773331   -3.469926 C.2        1 UNL1     0.0882
     62 H         -3.96824   0.862208   0.8769 H        1 UNL1     0.0365
     63 H         -4.822652   2.526792   1.695048 H        1 UNL1     0.0576
     64 H         -4.139016   2.770807   4.690023 H        1 UNL1     0.0615
     65 H         -5.684403   4.621254   2.703698 H        1 UNL1     0.0622
     66 H         -1.981965   0.336953   -5.446269 H        1 UNL1     0.0645
     67 H         -0.062695   0.170083   -4.558146 H        1 UNL1     0.0362
     68 H         -0.178559   -2.021185   -4.588021 H        1 UNL1     0.0741
     69 H         -0.559906   -3.551236   -2.457315 H        1 UNL1     0.0359
     70 H         -2.287256   -3.29862   -1.06019 H        1 UNL1     0.0600
     71 H         -1.132098   -2.391494   0.535881 H        1 UNL1     0.0348
     72 H         -3.001627   -0.830596   0.558367 H        1 UNL1     0.0602
     73 H         -2.622304   1.835018   -3.693922 H        1 UNL1     0.0628
     74 H         -4.948339   -0.166536   -3.484239 H        1 UNL1     0.1022
     75 H         -5.590102   5.881893   6.605224 H        1 UNL1     0.0279
     76 H         -4.052239   6.469346   6.112094 H        1 UNL1     0.0279
     77 H         -5.567172   7.427458   5.862502 H        1 UNL1     0.0279
     78 H         -3.954242   7.731801   3.6331 H        1 UNL1     0.1553
     79 H         -2.673499   6.223305   3.531324 H        1 UNL1     0.1484
     80 H         -0.199361   4.757644   1.047381 H        1 UNL1     0.0317
     81 H         -1.141674   6.202701   0.710068 H        1 UNL1     0.0317
     82 H         -0.84188   7.018062   3.063579 H        1 UNL1     0.0428
     83 H         0.67948   6.73253   2.247712 H        1 UNL1     0.0428
     84 H         -0.647657   3.697909   4.918465 H        1 UNL1     0.0428
     85 H         -1.655407   5.096145   4.782459 H        1 UNL1     0.0428
     86 H         -2.336093   3.080601   3.478964 H        1 UNL1     0.0317
     87 H         -0.895275   3.059266   2.570151 H        1 UNL1     0.0317
     88 H         0.561603   6.628994   5.177575 H        1 UNL1     0.0429
     89 H         1.306533   5.050118   5.439235 H        1 UNL1     0.0429
     90 H         2.825226   5.520884   3.445646 H        1 UNL1     0.0308
     91 H         1.094263   7.982334   3.292184 H        1 UNL1     0.0233
     92 H         2.839327   8.207569   3.0102 H        1 UNL1     0.0233
     93 H         1.91381   7.124768   1.992574 H        1 UNL1     0.0233
     94 H         2.820587   7.157071   5.938134 H        1 UNL1     0.0233
     95 H         3.939732   5.903045   5.382022 H        1 UNL1     0.0233
     96 H         4.017288   7.53663   4.682469 H        1 UNL1     0.0233
     97 H         -6.991272   7.093831   -4.319827 H        1 UNL1     0.0280
     98 H         -7.614338   5.466443   -4.295613 H        1 UNL1     0.0280
     99 H         -8.483263   6.76216   -3.420503 H        1 UNL1     0.0280
     100 H         -7.789027   8.307266   -2.093992 H        1 UNL1     0.2922
     101 H         -5.414033   -0.694088   1.628608 H        1 UNL1     0.0236
     102 H         -4.790415   -0.678989   3.32476 H        1 UNL1     0.0236
     103 H         -4.026977   -1.630942   2.089266 H        1 UNL1     0.0236
     104 H         -2.144574   -0.601825   3.055122 H        1 UNL1     0.2098
     105 H         0.800571   -1.539426   -0.006576 H        1 UNL1     0.0234
     106 H         0.142002   -0.78895   -1.487849 H        1 UNL1     0.0234
     107 H         0.0   0.0   0.0 H        1 UNL1     0.0234
     108 H         -3.419817   -0.963445   -1.207836 H        1 UNL1     0.2098
     109 H         -0.463009   0.567748   -1.700452 H        1 UNL1     0.0234
     110 H         0.383296   1.54766   -2.939945 H        1 UNL1     0.0234
     111 H         -1.327198   1.688456   -2.732026 H        1 UNL1     0.0234
     112 H         3.665292   -3.272862   -3.006479 H        1 UNL1     0.0342
     113 H         2.148132   -4.189839   -3.315695 H        1 UNL1     0.0342
     114 H         3.309066   -3.918537   -4.618229 H        1 UNL1     0.0342
     115 H         -1.297743   -3.752456   -4.816804 H        1 UNL1     0.0234
     116 H         -2.323592   -4.524772   -3.603566 H        1 UNL1     0.0234
     117 H         -2.770887   -3.006391   -4.408607 H        1 UNL1     0.0234
     118 H         -3.639531   4.837242   -3.750132 H        1 UNL1     0.0309
     119 H         -2.752907   3.281772   -3.700428 H        1 UNL1     0.0309
     120 H         -3.899334   3.64635   -4.971233 H        1 UNL1     0.0309
     121 H         -2.5757   -2.841848   -5.86567 H        1 UNL1     0.0524
     122 H         -1.077319   -2.094097   -5.297709 H        1 UNL1     0.0524
     123 H         -2.026767   -3.116598   -4.190107 H        1 UNL1     0.0524
@<TRIPOS>BOND
     1     1     2    1
     2     1    42    1
     3     2     3    2
     4     3     4    1
     5     4     5    2
     6     5     7    1
     7     6    75    1
     8     6    76    1
     9     6    77    1
    10     7     9   am
    11     9    10    1
    12    10    11    2
    13    10    43    1
    14    11    14    1
    15    11    15    1
    16    12    13   ar
    17    12    27   ar
    18    12    43    1
    19    13    14    1
    20    13    30   ar
    21    14    17    2
    22    15    16    1
    23    16    17    1
    24    16    18    1
    25    16    22    1
    26    18    19    1
    27    19    20    1
    28    20    21    1
    29    21    22    1
    30    23    24    1
    31    23    88    1
    32    23    89    1
    33    24    25    1
    34    24    26    1
    35    24    90    1
    36    25    91    1
    37    25    92    1
    38    25    93    1
    39    26    94    1
    40    26    95    1
    41    26    96    1
    42    27    28   ar
    43    28    29   ar
    44    29    30   ar
    45    29    31    1
    46    30    33    1
    47    31    32    1
    48    32    33    1
    49    32    35    1
    50    34    97    1
    51    34    98    1
    52    34    99    1
    53    35    61    1
    54    36    37    1
    55    36    60    1
    56    37    38    1
    57    38    39    1
    58    39    40    1
    59    40    41    1
    60    41    42    1
    61    45   100    1
    62    47   101    1
    63    47   102    1
    64    47   103    1
    65    48   104    1
    66    49   105    1
    67    49   106    1
    68    49   107    1
    69    50   108    1
    70    51    59    1
    71    52   109    1
    72    52   110    1
    73    52   111    1
    74    53    54    1
    75    54    55    2
    76    54    56    1
    77    56   112    1
    78    56   113    1
    79    56   114    1
    80    57   115    1
    81    57   116    1
    82    57   117    1
    83    58   118    1
    84    58   119    1
    85    58   120    1
    86    59   121    1
    87    59   122    1
    88    59   123    1
    89    60    61    2
    90     1    47    1
    91     1    62    1
    92     2    63    1
    93     3    64    1
    94     4    65    1
    95     5     6    1
    96     7     8    2
    97     9    78    1
    98    15    79    1
    99    18    80    1
   100    18    81    1
   101    19    82    1
   102    19    83    1
   103    20    23    1
   104    21    84    1
   105    21    85    1
   106    22    86    1
   107    22    87    1
   108    27    45    1
   109    28    34    1
   110    32    58    1
   111    33    46    2
   112    36    51    1
   113    36    66    1
   114    37    52    1
   115    37    67    1
   116    38    53    1
   117    38    68    1
   118    42    48    1
   119    42    72    1
   120    43    44    2
   121    60    73    1
   122    61    74    1
   123    39    69    1
   124    39    57    1
   125    40    70    1
   126    40    50    1
   127    41    71    1
   128    41    49    1
