@<TRIPOS>MOLECULE
*****
 123 128 0 0 0
SMALL
GASTEIGER

@<TRIPOS>ATOM
     1 C         5.16709   1.748429   0.493403 C.3        1 UNL1     0.0009
     2 C         6.60421   2.55436   -0.35642 C.2        1 UNL1     -0.0787
     3 C         7.88637   2.456023   -1.021583 C.2        1 UNL1     -0.0649
     4 C         8.764242   3.69102   -1.776884 C.2        1 UNL1     -0.0542
     5 C         9.784698   3.983513   -2.715071 C.2        1 UNL1     0.0115
     6 C         10.913223   3.357915   -3.58016 C.3        1 UNL1     -0.0348
     7 C         9.880415   5.466715   -3.321651 C.2        1 UNL1     0.2441
     8 O         10.704198   6.288328   -2.943683 O.2        1 UNL1     -0.2702
     9 N         9.130718   5.67365   -4.492669 N.am        1 UNL1     -0.2772
     10 C         7.847897   6.060455   -4.179501 C.2        1 UNL1     0.1049
     11 C         7.001909   5.08913   -3.887859 C.2        1 UNL1     0.0801
     12 C         6.549017   7.667317   -2.769452 C.ar        1 UNL1     0.0753
     13 C         5.789677   6.539495   -2.322204 C.ar        1 UNL1     0.0305
     14 C         5.906787   5.233735   -2.967438 C.2        1 UNL1     0.0924
     15 N         7.124495   3.76013   -4.046791 N.pl3        1 UNL1     -0.3170
     16 C         5.854452   3.161084   -3.733119 C.3        1 UNL1     0.1275
     17 N         5.217701   4.116444   -2.753549 N.2        1 UNL1     -0.2557
     18 C         5.002157   3.220121   -4.997164 C.3        1 UNL1     0.0016
     19 C         5.757475   2.535882   -6.125393 C.3        1 UNL1     0.0026
     20 N         6.027342   1.157789   -5.739309 N.3        1 UNL1     -0.3018
     21 C         6.790148   0.997433   -4.49964 C.3        1 UNL1     0.0026
     22 C         6.01097   1.688102   -3.379036 C.3        1 UNL1     0.0016
     23 C         6.472266   0.33813   -6.848743 C.3        1 UNL1     0.0012
     24 C         5.317228   0.088667   -7.831297 C.3        1 UNL1     -0.0339
     25 C         5.343366   1.091751   -8.996284 C.3        1 UNL1     -0.0615
     26 C         5.356726   -1.346082   -8.328001 C.3        1 UNL1     -0.0615
     27 C         6.344222   8.935069   -2.230026 C.ar        1 UNL1     0.1347
     28 C         5.384769   9.204769   -1.270462 C.ar        1 UNL1     0.0342
     29 C         4.682919   8.07041   -0.810243 C.ar        1 UNL1     0.1435
     30 C         4.902481   6.788325   -1.315487 C.ar        1 UNL1     0.0774
     31 O         3.641568   8.184127   0.042789 O.3        1 UNL1     -0.4436
     32 C         2.919855   6.951352   -0.099582 C.3        1 UNL1     0.3143
     33 C         3.933304   5.958124   -0.631214 C.2        1 UNL1     0.2504
     34 C         4.937847   10.570944   -0.830091 C.3        1 UNL1     -0.0327
     35 O         2.558619   6.514789   1.216538 O.2        1 UNL1     -0.4528
     36 C         -0.684407   4.582823   0.818576 C.3        1 UNL1     0.0854
     37 C         -0.989428   3.322187   -0.078799 C.3        1 UNL1     0.0236
     38 C         -1.590419   2.061256   0.708988 C.3        1 UNL1     0.1131
     39 C         -0.865258   1.530377   2.010748 C.3        1 UNL1     0.0200
     40 C         0.795905   1.384705   2.052637 C.3        1 UNL1     0.0661
     41 C         1.755712   0.615699   0.8843 C.3        1 UNL1     0.0091
     42 C         3.463568   0.978073   0.320992 C.3        1 UNL1     0.0661
     43 C         7.49952   7.459443   -3.889984 C.2        1 UNL1     0.2131
     44 O         7.89978   8.357426   -4.608423 O.2        1 UNL1     -0.2851
     45 O         7.156765   9.970073   -2.688261 O.3        1 UNL1     -0.5056
     46 O         3.949143   4.7546   -0.500323 O.2        1 UNL1     -0.2836
     47 C         5.562808   1.319049   1.931812 C.3        1 UNL1     -0.0566
     48 O         3.911986   -0.43306   0.403096 O.3        1 UNL1     -0.3909
     49 C         0.922033   0.383062   -0.356003 C.3        1 UNL1     -0.0577
     50 O         1.396034   2.602556   2.445586 O.3        1 UNL1     -0.3910
     51 O         -0.8091   4.393285   2.209963 O.3        1 UNL1     -0.3753
     52 C         0.055503   3.161526   -1.230866 C.3        1 UNL1     -0.0564
     53 O         -2.192723   1.022238   -0.191009 O.3        1 UNL1     -0.4608
     54 C         -2.414886   -0.287807   0.144188 C.2        1 UNL1     0.3042
     55 O         -1.842369   -1.280668   -0.303347 O.2        1 UNL1     -0.2512
     56 C         -3.444595   -0.46615   1.223357 C.3        1 UNL1     0.0332
     57 C         -1.586765   2.199546   3.271627 C.3        1 UNL1     -0.0567
     58 C         1.845138   7.196427   -1.184225 C.3        1 UNL1     0.0210
     59 C         -1.153436   5.566021   2.946163 C.3        1 UNL1     0.0372
     60 C         0.644736   5.211778   0.58846 C.2        1 UNL1     -0.0208
     61 C         1.557341   5.647019   1.458209 C.2        1 UNL1     0.0882
     62 H         4.691213   2.732648   0.580376 H        1 UNL1     0.0365
     63 H         6.338004   3.608191   -0.251329 H        1 UNL1     0.0576
     64 H         8.344038   1.489115   -1.242346 H        1 UNL1     0.0615
     65 H         8.277088   4.60649   -1.430359 H        1 UNL1     0.0622
     66 H         -1.428867   5.329381   0.507968 H        1 UNL1     0.0645
     67 H         -1.854694   3.631563   -0.690485 H        1 UNL1     0.0362
     68 H         -2.5376   2.498244   1.060287 H        1 UNL1     0.0741
     69 H         -1.196945   0.519325   2.20611 H        1 UNL1     0.0359
     70 H         0.907258   0.724452   2.933958 H        1 UNL1     0.0600
     71 H         1.799033   -0.405428   1.311361 H        1 UNL1     0.0348
     72 H         3.357317   1.466384   1.300573 H        1 UNL1     0.0602
     73 H         0.763081   5.408915   -0.448063 H        1 UNL1     0.0628
     74 H         1.539331   5.436463   2.528059 H        1 UNL1     0.1022
     75 H         10.957549   2.252647   -3.427015 H        1 UNL1     0.0279
     76 H         10.800047   3.440605   -4.658781 H        1 UNL1     0.0279
     77 H         11.918187   3.662569   -3.253152 H        1 UNL1     0.0279
     78 H         9.068864   4.803653   -5.017414 H        1 UNL1     0.1553
     79 H         7.789986   3.332022   -4.663862 H        1 UNL1     0.1484
     80 H         4.040755   2.729287   -4.803379 H        1 UNL1     0.0317
     81 H         4.775747   4.256866   -5.268366 H        1 UNL1     0.0317
     82 H         6.688285   3.067082   -6.373047 H        1 UNL1     0.0428
     83 H         5.132698   2.590986   -7.017395 H        1 UNL1     0.0428
     84 H         6.910254   -0.045497   -4.190314 H        1 UNL1     0.0428
     85 H         7.820315   1.36537   -4.603067 H        1 UNL1     0.0428
     86 H         6.526996   1.437789   -2.470713 H        1 UNL1     0.0317
     87 H         5.031434   1.210559   -3.254304 H        1 UNL1     0.0317
     88 H         7.268593   0.879806   -7.375758 H        1 UNL1     0.0429
     89 H         6.904638   -0.607642   -6.49754 H        1 UNL1     0.0429
     90 H         4.364155   0.195509   -7.299837 H        1 UNL1     0.0308
     91 H         6.293693   1.048889   -9.536788 H        1 UNL1     0.0233
     92 H         4.525206   0.895706   -9.69327 H        1 UNL1     0.0233
     93 H         5.215875   2.127394   -8.658609 H        1 UNL1     0.0233
     94 H         4.660783   -1.47569   -9.163884 H        1 UNL1     0.0233
     95 H         6.361226   -1.590477   -8.684671 H        1 UNL1     0.0233
     96 H         5.081969   -2.049815   -7.537282 H        1 UNL1     0.0233
     97 H         4.144197   10.521307   -0.090573 H        1 UNL1     0.0280
     98 H         5.75045   11.14097   -0.361047 H        1 UNL1     0.0280
     99 H         4.564575   11.135415   -1.700226 H        1 UNL1     0.0280
     100 H         6.68993   10.720688   -3.011162 H        1 UNL1     0.2922
     101 H         4.69975   0.885534   2.436641 H        1 UNL1     0.0236
     102 H         6.013414   2.12442   2.510877 H        1 UNL1     0.0236
     103 H         6.318993   0.516318   1.931112 H        1 UNL1     0.0236
     104 H         4.331148   -0.558989   1.276832 H        1 UNL1     0.2098
     105 H         0.709696   1.281849   -0.929507 H        1 UNL1     0.0234
     106 H         1.291629   -0.40506   -1.011891 H        1 UNL1     0.0234
     107 H         0.0   -0.0   0.0 H        1 UNL1     0.0234
     108 H         1.197824   3.260748   1.751854 H        1 UNL1     0.2098
     109 H         1.080171   3.04801   -0.850235 H        1 UNL1     0.0234
     110 H         -0.176725   2.334371   -1.910298 H        1 UNL1     0.0234
     111 H         0.077035   4.044267   -1.883746 H        1 UNL1     0.0234
     112 H         -3.567547   -1.529933   1.448294 H        1 UNL1     0.0342
     113 H         -3.197845   0.097238   2.121996 H        1 UNL1     0.0342
     114 H         -4.40515   -0.088322   0.846867 H        1 UNL1     0.0342
     115 H         -2.656424   1.951359   3.309316 H        1 UNL1     0.0234
     116 H         -1.150726   1.919856   4.232716 H        1 UNL1     0.0234
     117 H         -1.625256   3.3014   3.222861 H        1 UNL1     0.0234
     118 H         0.943932   7.683449   -0.772346 H        1 UNL1     0.0309
     119 H         2.214903   7.784288   -2.030331 H        1 UNL1     0.0309
     120 H         1.456669   6.264451   -1.609219 H        1 UNL1     0.0309
     121 H         -0.349091   6.288499   2.810472 H        1 UNL1     0.0524
     122 H         -2.083408   6.031903   2.579908 H        1 UNL1     0.0524
     123 H         -1.269574   5.327852   3.999672 H        1 UNL1     0.0524
@<TRIPOS>BOND
     1     1     2    1
     2     1    42    1
     3     2     3    2
     4     3     4    1
     5     4     5    2
     6     5     7    1
     7     6    75    1
     8     6    76    1
     9     6    77    1
    10     7     9   am
    11     9    10    1
    12    10    11    2
    13    10    43    1
    14    11    14    1
    15    11    15    1
    16    12    13   ar
    17    12    27   ar
    18    12    43    1
    19    13    14    1
    20    13    30   ar
    21    14    17    2
    22    15    16    1
    23    16    17    1
    24    16    18    1
    25    16    22    1
    26    18    19    1
    27    19    20    1
    28    20    21    1
    29    21    22    1
    30    23    24    1
    31    23    88    1
    32    23    89    1
    33    24    25    1
    34    24    26    1
    35    24    90    1
    36    25    91    1
    37    25    92    1
    38    25    93    1
    39    26    94    1
    40    26    95    1
    41    26    96    1
    42    27    28   ar
    43    28    29   ar
    44    29    30   ar
    45    29    31    1
    46    30    33    1
    47    31    32    1
    48    32    33    1
    49    32    35    1
    50    34    97    1
    51    34    98    1
    52    34    99    1
    53    35    61    1
    54    36    37    1
    55    36    60    1
    56    37    38    1
    57    38    39    1
    58    39    40    1
    59    40    41    1
    60    41    42    1
    61    45   100    1
    62    47   101    1
    63    47   102    1
    64    47   103    1
    65    48   104    1
    66    49   105    1
    67    49   106    1
    68    49   107    1
    69    50   108    1
    70    51    59    1
    71    52   109    1
    72    52   110    1
    73    52   111    1
    74    53    54    1
    75    54    55    2
    76    54    56    1
    77    56   112    1
    78    56   113    1
    79    56   114    1
    80    57   115    1
    81    57   116    1
    82    57   117    1
    83    58   118    1
    84    58   119    1
    85    58   120    1
    86    59   121    1
    87    59   122    1
    88    59   123    1
    89    60    61    2
    90     1    47    1
    91     1    62    1
    92     2    63    1
    93     3    64    1
    94     4    65    1
    95     5     6    1
    96     7     8    2
    97     9    78    1
    98    15    79    1
    99    18    80    1
   100    18    81    1
   101    19    82    1
   102    19    83    1
   103    20    23    1
   104    21    84    1
   105    21    85    1
   106    22    86    1
   107    22    87    1
   108    27    45    1
   109    28    34    1
   110    32    58    1
   111    33    46    2
   112    36    51    1
   113    36    66    1
   114    37    52    1
   115    37    67    1
   116    38    53    1
   117    38    68    1
   118    42    48    1
   119    42    72    1
   120    43    44    2
   121    60    73    1
   122    61    74    1
   123    39    69    1
   124    39    57    1
   125    40    70    1
   126    40    50    1
   127    41    71    1
   128    41    49    1
