@<TRIPOS>MOLECULE
*****
 123 128 0 0 0
SMALL
GASTEIGER

@<TRIPOS>ATOM
     1 C         5.121416   1.888768   0.463364 C.3        1 UNL1     0.0009
     2 C         6.515579   2.767427   -0.385932 C.2        1 UNL1     -0.0787
     3 C         7.791132   2.732625   -1.069892 C.2        1 UNL1     -0.0649
     4 C         8.611835   4.016767   -1.807309 C.2        1 UNL1     -0.0542
     5 C         9.607545   4.368881   -2.751584 C.2        1 UNL1     0.0115
     6 C         10.746427   3.806167   -3.645801 C.3        1 UNL1     -0.0348
     7 C         9.639543   5.868205   -3.324291 C.2        1 UNL1     0.2441
     8 O         10.437355   6.711237   -2.937872 O.2        1 UNL1     -0.2702
     9 N         8.866442   6.073765   -4.480238 N.am        1 UNL1     -0.2772
     10 C         7.574595   6.404835   -4.141349 C.2        1 UNL1     0.1049
     11 C         6.769485   5.395984   -3.861634 C.2        1 UNL1     0.0801
     12 C         6.236554   7.928918   -2.677057 C.ar        1 UNL1     0.0753
     13 C         5.526014   6.763391   -2.246605 C.ar        1 UNL1     0.0305
     14 C         5.682653   5.47815   -2.923859 C.2        1 UNL1     0.0924
     15 N         6.939227   4.076534   -4.05338 N.pl3        1 UNL1     -0.3170
     16 C         5.696849   3.423177   -3.737352 C.3        1 UNL1     0.1275
     17 N         5.038672   4.331154   -2.727351 N.2        1 UNL1     -0.2557
     18 C         4.825441   3.479275   -4.988434 C.3        1 UNL1     0.0016
     19 C         5.589931   2.850029   -6.142208 C.3        1 UNL1     0.0026
     20 N         5.916249   1.474511   -5.792211 N.3        1 UNL1     -0.3018
     21 C         6.70167   1.314395   -4.566713 C.3        1 UNL1     0.0026
     22 C         5.912993   1.949345   -3.4201 C.3        1 UNL1     0.0016
     23 C         6.375893   0.697894   -6.926335 C.3        1 UNL1     0.0012
     24 C         5.21738   0.427945   -7.899337 C.3        1 UNL1     -0.0339
     25 C         5.538023   0.942836   -9.312182 C.3        1 UNL1     -0.0615
     26 C         4.878352   -1.052519   -7.907474 C.3        1 UNL1     -0.0615
     27 C         5.992241   9.175333   -2.105323 C.ar        1 UNL1     0.1347
     28 C         5.036859   9.386663   -1.127246 C.ar        1 UNL1     0.0342
     29 C         4.384187   8.216464   -0.684731 C.ar        1 UNL1     0.1435
     30 C         4.644264   6.955498   -1.222825 C.ar        1 UNL1     0.0774
     31 O         3.351295   8.271342   0.18425 O.3        1 UNL1     -0.4436
     32 C         2.674055   7.015953   0.022336 C.3        1 UNL1     0.3143
     33 C         3.716274   6.073969   -0.545695 C.2        1 UNL1     0.2504
     34 C         4.545569   10.724598   -0.649056 C.3        1 UNL1     -0.0327
     35 O         2.347665   6.535949   1.332419 O.2        1 UNL1     -0.4528
     36 C         -0.826431   4.493299   0.931439 C.3        1 UNL1     0.0854
     37 C         -1.096776   3.243101   0.008703 C.3        1 UNL1     0.0236
     38 C         -1.6394   1.942696   0.774374 C.3        1 UNL1     0.1131
     39 C         -0.87694   1.409574   2.053711 C.3        1 UNL1     0.0200
     40 C         0.788916   1.325428   2.07049 C.3        1 UNL1     0.0661
     41 C         1.76033   0.620096   0.871962 C.3        1 UNL1     0.0091
     42 C         3.445512   1.059191   0.295108 C.3        1 UNL1     0.0661
     43 C         7.178453   7.782723   -3.814472 C.2        1 UNL1     0.2131
     44 O         7.534977   8.711402   -4.516742 O.2        1 UNL1     -0.2851
     45 O         6.759244   10.250381   -2.549636 O.3        1 UNL1     -0.5056
     46 O         3.778715   4.869192   -0.443378 O.2        1 UNL1     -0.2836
     47 C         5.552816   1.441536   1.885987 C.3        1 UNL1     -0.0566
     48 O         3.947239   -0.335633   0.338127 O.3        1 UNL1     -0.3909
     49 C         0.91871   0.384955   -0.362493 C.3        1 UNL1     -0.0577
     50 O         1.34871   2.555573   2.484127 O.3        1 UNL1     -0.3910
     51 O         -0.924611   4.267226   2.319489 O.3        1 UNL1     -0.3753
     52 C         -0.062721   3.148345   -1.160357 C.3        1 UNL1     -0.0564
     53 O         -2.21508   0.902803   -0.141891 O.3        1 UNL1     -0.4608
     54 C         -2.364863   -0.425959   0.157918 C.2        1 UNL1     0.3042
     55 O         -1.659783   -1.360896   -0.219699 O.2        1 UNL1     -0.2512
     56 C         -3.500219   -0.705396   1.101101 C.3        1 UNL1     0.0332
     57 C         -1.60524   2.021979   3.339291 C.3        1 UNL1     -0.0567
     58 C         1.575973   7.245429   -1.042129 C.3        1 UNL1     0.0210
     59 C         -1.27137   5.416382   3.090893 C.3        1 UNL1     0.0372
     60 C         0.475052   5.17683   0.698871 C.2        1 UNL1     -0.0208
     61 C         1.382838   5.625875   1.566643 C.2        1 UNL1     0.0882
     62 H         4.610492   2.852169   0.579673 H        1 UNL1     0.0365
     63 H         6.211823   3.807824   -0.252609 H        1 UNL1     0.0576
     64 H         8.281355   1.788916   -1.319297 H        1 UNL1     0.0615
     65 H         8.095814   4.905084   -1.433013 H        1 UNL1     0.0622
     66 H         -1.60241   5.218344   0.648222 H        1 UNL1     0.0645
     67 H         -1.981385   3.533787   -0.584195 H        1 UNL1     0.0362
     68 H         -2.59721   2.33562   1.148182 H        1 UNL1     0.0741
     69 H         -1.168016   0.382555   2.229537 H        1 UNL1     0.0359
     70 H         0.937018   0.6497   2.934503 H        1 UNL1     0.0600
     71 H         1.847565   -0.408249   1.274274 H        1 UNL1     0.0348
     72 H         3.334801   1.520483   1.287211 H        1 UNL1     0.0602
     73 H         0.571543   5.402086   -0.334182 H        1 UNL1     0.0628
     74 H         1.387565   5.390211   2.631386 H        1 UNL1     0.1022
     75 H         10.782281   2.691975   -3.580031 H        1 UNL1     0.0279
     76 H         10.651067   3.974706   -4.716114 H        1 UNL1     0.0279
     77 H         11.74764   4.077262   -3.280041 H        1 UNL1     0.0279
     78 H         8.829716   5.214374   -5.024458 H        1 UNL1     0.1553
     79 H         7.611542   3.688029   -4.688982 H        1 UNL1     0.1484
     80 H         3.885763   2.948369   -4.793729 H        1 UNL1     0.0317
     81 H         4.55685   4.512761   -5.232189 H        1 UNL1     0.0317
     82 H         6.496789   3.421352   -6.389412 H        1 UNL1     0.0428
     83 H         4.951185   2.90217   -7.02444 H        1 UNL1     0.0428
     84 H         6.864802   0.269862   -4.283608 H        1 UNL1     0.0428
     85 H         7.715889   1.723023   -4.674883 H        1 UNL1     0.0428
     86 H         6.450566   1.697727   -2.524727 H        1 UNL1     0.0317
     87 H         4.95374   1.432628   -3.293873 H        1 UNL1     0.0317
     88 H         7.144097   1.281069   -7.450799 H        1 UNL1     0.0429
     89 H         6.84801   -0.23882   -6.603153 H        1 UNL1     0.0429
     90 H         4.317604   0.939283   -7.537189 H        1 UNL1     0.0308
     91 H         6.546161   0.651929   -9.622237 H        1 UNL1     0.0233
     92 H         4.815424   0.559332   -10.036326 H        1 UNL1     0.0233
     93 H         5.487572   2.036336   -9.379608 H        1 UNL1     0.0233
     94 H         4.271103   -1.296112   -8.785965 H        1 UNL1     0.0233
     95 H         5.795801   -1.645657   -7.956843 H        1 UNL1     0.0233
     96 H         4.320533   -1.339082   -7.011546 H        1 UNL1     0.0233
     97 H         3.709258   10.630081   0.037151 H        1 UNL1     0.0280
     98 H         5.320418   11.279278   -0.1039 H        1 UNL1     0.0280
     99 H         4.218164   11.327435   -1.511894 H        1 UNL1     0.0280
     100 H         6.26353   11.016775   -2.778829 H        1 UNL1     0.2922
     101 H         4.687202   1.066936   2.431921 H        1 UNL1     0.0236
     102 H         6.079686   2.218894   2.43835 H        1 UNL1     0.0236
     103 H         6.255121   0.591732   1.857778 H        1 UNL1     0.0236
     104 H         4.29629   -0.495951   1.236699 H        1 UNL1     0.2098
     105 H         0.70043   1.28297   -0.934973 H        1 UNL1     0.0234
     106 H         1.285585   -0.402668   -1.020506 H        1 UNL1     0.0234
     107 H         0.0   -0.0   0.0 H        1 UNL1     0.0234
     108 H         1.170704   3.207089   1.778712 H        1 UNL1     0.2098
     109 H         0.971641   3.077077   -0.79604 H        1 UNL1     0.0234
     110 H         -0.266395   2.321403   -1.849143 H        1 UNL1     0.0234
     111 H         -0.09183   4.040685   -1.799754 H        1 UNL1     0.0234
     112 H         -3.551337   -1.777355   1.314724 H        1 UNL1     0.0342
     113 H         -3.420697   -0.127157   2.020427 H        1 UNL1     0.0342
     114 H         -4.437096   -0.415685   0.605629 H        1 UNL1     0.0342
     115 H         -2.687421   1.832625   3.324527 H        1 UNL1     0.0234
     116 H         -1.219156   1.646694   4.289107 H        1 UNL1     0.0234
     117 H         -1.582329   3.124791   3.374239 H        1 UNL1     0.0234
     118 H         0.568238   7.296323   -0.593925 H        1 UNL1     0.0309
     119 H         1.744628   8.142038   -1.646984 H        1 UNL1     0.0309
     120 H         1.495931   6.412948   -1.749713 H        1 UNL1     0.0309
     121 H         -0.880312   5.268282   4.097122 H        1 UNL1     0.0524
     122 H         -0.819871   6.339942   2.691865 H        1 UNL1     0.0524
     123 H         -2.350583   5.536462   3.122079 H        1 UNL1     0.0524
@<TRIPOS>BOND
     1     1     2    1
     2     1    42    1
     3     2     3    2
     4     3     4    1
     5     4     5    2
     6     5     7    1
     7     6    75    1
     8     6    76    1
     9     6    77    1
    10     7     9   am
    11     9    10    1
    12    10    11    2
    13    10    43    1
    14    11    14    1
    15    11    15    1
    16    12    13   ar
    17    12    27   ar
    18    12    43    1
    19    13    14    1
    20    13    30   ar
    21    14    17    2
    22    15    16    1
    23    16    17    1
    24    16    18    1
    25    16    22    1
    26    18    19    1
    27    19    20    1
    28    20    21    1
    29    21    22    1
    30    23    24    1
    31    23    88    1
    32    23    89    1
    33    24    25    1
    34    24    26    1
    35    24    90    1
    36    25    91    1
    37    25    92    1
    38    25    93    1
    39    26    94    1
    40    26    95    1
    41    26    96    1
    42    27    28   ar
    43    28    29   ar
    44    29    30   ar
    45    29    31    1
    46    30    33    1
    47    31    32    1
    48    32    33    1
    49    32    35    1
    50    34    97    1
    51    34    98    1
    52    34    99    1
    53    35    61    1
    54    36    37    1
    55    36    60    1
    56    37    38    1
    57    38    39    1
    58    39    40    1
    59    40    41    1
    60    41    42    1
    61    45   100    1
    62    47   101    1
    63    47   102    1
    64    47   103    1
    65    48   104    1
    66    49   105    1
    67    49   106    1
    68    49   107    1
    69    50   108    1
    70    51    59    1
    71    52   109    1
    72    52   110    1
    73    52   111    1
    74    53    54    1
    75    54    55    2
    76    54    56    1
    77    56   112    1
    78    56   113    1
    79    56   114    1
    80    57   115    1
    81    57   116    1
    82    57   117    1
    83    58   118    1
    84    58   119    1
    85    58   120    1
    86    59   121    1
    87    59   122    1
    88    59   123    1
    89    60    61    2
    90     1    47    1
    91     1    62    1
    92     2    63    1
    93     3    64    1
    94     4    65    1
    95     5     6    1
    96     7     8    2
    97     9    78    1
    98    15    79    1
    99    18    80    1
   100    18    81    1
   101    19    82    1
   102    19    83    1
   103    20    23    1
   104    21    84    1
   105    21    85    1
   106    22    86    1
   107    22    87    1
   108    27    45    1
   109    28    34    1
   110    32    58    1
   111    33    46    2
   112    36    51    1
   113    36    66    1
   114    37    52    1
   115    37    67    1
   116    38    53    1
   117    38    68    1
   118    42    48    1
   119    42    72    1
   120    43    44    2
   121    60    73    1
   122    61    74    1
   123    39    69    1
   124    39    57    1
   125    40    70    1
   126    40    50    1
   127    41    71    1
   128    41    49    1
