@<TRIPOS>MOLECULE
*****
 123 128 0 0 0
SMALL
GASTEIGER

@<TRIPOS>ATOM
     1 C         5.167431   1.747151   0.494361 C.3        1 UNL1     0.0009
     2 C         6.604751   2.553151   -0.355057 C.2        1 UNL1     -0.0787
     3 C         7.886917   2.454835   -1.020211 C.2        1 UNL1     -0.0649
     4 C         8.765074   3.689975   -1.774946 C.2        1 UNL1     -0.0542
     5 C         9.785629   3.982661   -2.712966 C.2        1 UNL1     0.0115
     6 C         10.91406   3.3572   -3.578279 C.3        1 UNL1     -0.0348
     7 C         9.881676   5.466103   -3.318905 C.2        1 UNL1     0.2441
     8 O         10.705614   6.287384   -2.940552 O.2        1 UNL1     -0.2702
     9 N         9.132069   5.673695   -4.489865 N.am        1 UNL1     -0.2772
     10 C         7.849315   6.06063   -4.176583 C.2        1 UNL1     0.1049
     11 C         7.003115   5.089354   -3.885392 C.2        1 UNL1     0.0801
     12 C         6.55071   7.667154   -2.765896 C.ar        1 UNL1     0.0753
     13 C         5.79112   6.539298   -2.319163 C.ar        1 UNL1     0.0305
     14 C         5.907986   5.23379   -2.964953 C.2        1 UNL1     0.0924
     15 N         7.125433   3.760398   -4.044889 N.pl3        1 UNL1     -0.3170
     16 C         5.855255   3.161478   -3.731526 C.3        1 UNL1     0.1275
     17 N         5.218661   4.11655   -2.751571 N.2        1 UNL1     -0.2557
     18 C         5.003023   3.221234   -4.99558 C.3        1 UNL1     0.0016
     19 C         5.758245   2.537324   -6.124072 C.3        1 UNL1     0.0026
     20 N         6.027812   1.15901   -5.738569 N.3        1 UNL1     -0.3018
     21 C         6.790536   0.997964   -4.498937 C.3        1 UNL1     0.0026
     22 C         6.011455   1.688313   -3.378068 C.3        1 UNL1     0.0016
     23 C         6.472613   0.339735   -6.848337 C.3        1 UNL1     0.0012
     24 C         5.317563   0.090932   -7.831043 C.3        1 UNL1     -0.0339
     25 C         5.343955   1.094511   -8.995599 C.3        1 UNL1     -0.0615
     26 C         5.356785   -1.343612   -8.328362 C.3        1 UNL1     -0.0615
     27 C         6.346154   8.934717   -2.225934 C.ar        1 UNL1     0.1347
     28 C         5.386718   9.204203   -1.266294 C.ar        1 UNL1     0.0342
     29 C         4.684616   8.069791   -0.80659 C.ar        1 UNL1     0.1435
     30 C         4.903934   6.787878   -1.312375 C.ar        1 UNL1     0.0774
     31 O         3.643254   8.183356   0.046449 O.3        1 UNL1     -0.4436
     32 C         2.921293   6.950791   -0.096481 C.3        1 UNL1     0.3143
     33 C         3.934558   5.957583   -0.628498 C.2        1 UNL1     0.2504
     34 C         4.94006   10.57028   -0.825354 C.3        1 UNL1     -0.0327
     35 O         2.559913   6.513738   1.219438 O.2        1 UNL1     -0.4528
     36 C         -0.683496   4.582612   0.820515 C.3        1 UNL1     0.0854
     37 C         -0.988739   3.322424   -0.077413 C.3        1 UNL1     0.0236
     38 C         -1.590022   2.06128   0.709809 C.3        1 UNL1     0.1131
     39 C         -0.865023   1.529692   2.01137 C.3        1 UNL1     0.0200
     40 C         0.796108   1.38366   2.053263 C.3        1 UNL1     0.0661
     41 C         1.755804   0.614957   0.884635 C.3        1 UNL1     0.0091
     42 C         3.463757   0.977221   0.321552 C.3        1 UNL1     0.0661
     43 C         7.501216   7.459565   -3.886479 C.2        1 UNL1     0.2131
     44 O         7.901689   8.357774   -4.604517 O.2        1 UNL1     -0.2851
     45 O         7.158929   9.96975   -2.683693 O.3        1 UNL1     -0.5056
     46 O         3.950143   4.753999   -0.498123 O.2        1 UNL1     -0.2836
     47 C         5.563002   1.317073   1.932603 C.3        1 UNL1     -0.0566
     48 O         3.91188   -0.43404   0.403067 O.3        1 UNL1     -0.3909
     49 C         0.922126   0.383025   -0.355801 C.3        1 UNL1     -0.0577
     50 O         1.396472   2.601218   2.446759 O.3        1 UNL1     -0.3910
     51 O         -0.808284   4.392503   2.211816 O.3        1 UNL1     -0.3753
     52 C         0.056204   3.162043   -1.229507 C.3        1 UNL1     -0.0564
     53 O         -2.192505   1.022772   -0.190659 O.3        1 UNL1     -0.4608
     54 C         -2.415342   -0.287268   0.14411 C.2        1 UNL1     0.3042
     55 O         -1.843249   -1.280269   -0.30366 O.2        1 UNL1     -0.2512
     56 C         -3.445269   -0.465445   1.223098 C.3        1 UNL1     0.0332
     57 C         -1.586444   2.198468   3.272506 C.3        1 UNL1     -0.0567
     58 C         1.846669   7.196554   -1.181061 C.3        1 UNL1     0.0210
     59 C         -1.152407   5.564993   2.948505 C.3        1 UNL1     0.0372
     60 C         0.645787   5.211392   0.590724 C.2        1 UNL1     -0.0208
     61 C         1.558446   5.646072   1.460696 C.2        1 UNL1     0.0882
     62 H         4.691753   2.731431   0.581738 H        1 UNL1     0.0365
     63 H         6.338758   3.606992   -0.249524 H        1 UNL1     0.0576
     64 H         8.344395   1.487927   -1.24137 H        1 UNL1     0.0615
     65 H         8.278095   4.605396   -1.428048 H        1 UNL1     0.0622
     66 H         -1.427788   5.329457   0.510198 H        1 UNL1     0.0645
     67 H         -1.853918   3.632242   -0.689001 H        1 UNL1     0.0362
     68 H         -2.537128   2.498312   1.061257 H        1 UNL1     0.0741
     69 H         -1.196927   0.518625   2.206284 H        1 UNL1     0.0359
     70 H         0.907289   0.723005   2.934305 H        1 UNL1     0.0600
     71 H         1.798896   -0.406362   1.311259 H        1 UNL1     0.0348
     72 H         3.357567   1.465133   1.301338 H        1 UNL1     0.0602
     73 H         0.764214   5.408949   -0.44571 H        1 UNL1     0.0628
     74 H         1.54035   5.43506   2.530455 H        1 UNL1     0.1022
     75 H         10.958152   2.251858   -3.425605 H        1 UNL1     0.0279
     76 H         10.800944   3.440378   -4.656868 H        1 UNL1     0.0279
     77 H         11.919073   3.661507   -3.251099 H        1 UNL1     0.0279
     78 H         9.070057   4.803936   -5.014986 H        1 UNL1     0.1553
     79 H         7.790862   3.332417   -4.662117 H        1 UNL1     0.1484
     80 H         4.041511   2.730515   -4.802044 H        1 UNL1     0.0317
     81 H         4.776838   4.258142   -5.266346 H        1 UNL1     0.0317
     82 H         6.689174   3.068438   -6.37146 H        1 UNL1     0.0428
     83 H         5.133515   2.59294   -7.016075 H        1 UNL1     0.0428
     84 H         6.910413   -0.045124   -4.190055 H        1 UNL1     0.0428
     85 H         7.820782   1.365733   -4.602166 H        1 UNL1     0.0428
     86 H         6.527392   1.437503   -2.469833 H        1 UNL1     0.0317
     87 H         5.031815   1.210918   -3.253581 H        1 UNL1     0.0317
     88 H         7.269073   0.881474   -7.375087 H        1 UNL1     0.0429
     89 H         6.904775   -0.606277   -6.497522 H        1 UNL1     0.0429
     90 H         4.36449   0.197742   -7.299577 H        1 UNL1     0.0308
     91 H         6.293108   1.049507   -9.537987 H        1 UNL1     0.0233
     92 H         4.523936   0.900873   -9.691072 H        1 UNL1     0.0233
     93 H         5.219747   2.13031   -8.657178 H        1 UNL1     0.0233
     94 H         4.660849   -1.472717   -9.164329 H        1 UNL1     0.0233
     95 H         6.361249   -1.588061   -8.685097 H        1 UNL1     0.0233
     96 H         5.081851   -2.047627   -7.537956 H        1 UNL1     0.0233
     97 H         4.14637   10.520491   -0.085889 H        1 UNL1     0.0280
     98 H         5.752762   11.139938   -0.356033 H        1 UNL1     0.0280
     99 H         4.56694   11.135203   -1.695262 H        1 UNL1     0.0280
     100 H         6.692257   10.720337   -3.006892 H        1 UNL1     0.2922
     101 H         4.699834   0.883519   2.437211 H        1 UNL1     0.0236
     102 H         6.013751   2.122102   2.512031 H        1 UNL1     0.0236
     103 H         6.319021   0.514186   1.931588 H        1 UNL1     0.0236
     104 H         4.330981   -0.56043   1.276767 H        1 UNL1     0.2098
     105 H         0.709998   1.282102   -0.928928 H        1 UNL1     0.0234
     106 H         1.291587   -0.404892   -1.012012 H        1 UNL1     0.0234
     107 H         0.0   -0.0   0.0 H        1 UNL1     0.0234
     108 H         1.198426   3.259749   1.753302 H        1 UNL1     0.2098
     109 H         1.080834   3.048152   -0.848883 H        1 UNL1     0.0234
     110 H         -0.176166   2.335227   -1.909303 H        1 UNL1     0.0234
     111 H         0.077945   4.045059   -1.882007 H        1 UNL1     0.0234
     112 H         -3.568762   -1.529236   1.447693 H        1 UNL1     0.0342
     113 H         -3.198357   0.097549   2.12194 H        1 UNL1     0.0342
     114 H         -4.405595   -0.087037   0.846607 H        1 UNL1     0.0342
     115 H         -2.650705   1.930329   3.323854 H        1 UNL1     0.0234
     116 H         -1.135411   1.937489   4.231938 H        1 UNL1     0.0234
     117 H         -1.64657   3.2988   3.212528 H        1 UNL1     0.0234
     118 H         0.945548   7.683585   -0.76901 H        1 UNL1     0.0309
     119 H         2.21659   7.784702   -2.026901 H        1 UNL1     0.0309
     120 H         1.458025   6.264841   -1.606471 H        1 UNL1     0.0309
     121 H         -0.347908   6.287364   2.813157 H        1 UNL1     0.0524
     122 H         -2.082269   6.031224   2.582413 H        1 UNL1     0.0524
     123 H         -1.268637   5.326396   4.001907 H        1 UNL1     0.0524
@<TRIPOS>BOND
     1     1     2    1
     2     1    42    1
     3     2     3    2
     4     3     4    1
     5     4     5    2
     6     5     7    1
     7     6    75    1
     8     6    76    1
     9     6    77    1
    10     7     9   am
    11     9    10    1
    12    10    11    2
    13    10    43    1
    14    11    14    1
    15    11    15    1
    16    12    13   ar
    17    12    27   ar
    18    12    43    1
    19    13    14    1
    20    13    30   ar
    21    14    17    2
    22    15    16    1
    23    16    17    1
    24    16    18    1
    25    16    22    1
    26    18    19    1
    27    19    20    1
    28    20    21    1
    29    21    22    1
    30    23    24    1
    31    23    88    1
    32    23    89    1
    33    24    25    1
    34    24    26    1
    35    24    90    1
    36    25    91    1
    37    25    92    1
    38    25    93    1
    39    26    94    1
    40    26    95    1
    41    26    96    1
    42    27    28   ar
    43    28    29   ar
    44    29    30   ar
    45    29    31    1
    46    30    33    1
    47    31    32    1
    48    32    33    1
    49    32    35    1
    50    34    97    1
    51    34    98    1
    52    34    99    1
    53    35    61    1
    54    36    37    1
    55    36    60    1
    56    37    38    1
    57    38    39    1
    58    39    40    1
    59    40    41    1
    60    41    42    1
    61    45   100    1
    62    47   101    1
    63    47   102    1
    64    47   103    1
    65    48   104    1
    66    49   105    1
    67    49   106    1
    68    49   107    1
    69    50   108    1
    70    51    59    1
    71    52   109    1
    72    52   110    1
    73    52   111    1
    74    53    54    1
    75    54    55    2
    76    54    56    1
    77    56   112    1
    78    56   113    1
    79    56   114    1
    80    57   115    1
    81    57   116    1
    82    57   117    1
    83    58   118    1
    84    58   119    1
    85    58   120    1
    86    59   121    1
    87    59   122    1
    88    59   123    1
    89    60    61    2
    90     1    47    1
    91     1    62    1
    92     2    63    1
    93     3    64    1
    94     4    65    1
    95     5     6    1
    96     7     8    2
    97     9    78    1
    98    15    79    1
    99    18    80    1
   100    18    81    1
   101    19    82    1
   102    19    83    1
   103    20    23    1
   104    21    84    1
   105    21    85    1
   106    22    86    1
   107    22    87    1
   108    27    45    1
   109    28    34    1
   110    32    58    1
   111    33    46    2
   112    36    51    1
   113    36    66    1
   114    37    52    1
   115    37    67    1
   116    38    53    1
   117    38    68    1
   118    42    48    1
   119    42    72    1
   120    43    44    2
   121    60    73    1
   122    61    74    1
   123    39    69    1
   124    39    57    1
   125    40    70    1
   126    40    50    1
   127    41    71    1
   128    41    49    1
