@<TRIPOS>MOLECULE
*****
 123 128 0 0 0
SMALL
GASTEIGER

@<TRIPOS>ATOM
     1 C         2.469627   -0.243923   -4.68244 C.3        1 UNL1     0.0009
     2 C         3.671535   -1.201103   -5.71987 C.2        1 UNL1     -0.0787
     3 C         5.030463   -1.474956   -6.137442 C.2        1 UNL1     -0.0649
     4 C         5.575093   -2.703642   -7.167037 C.2        1 UNL1     -0.0542
     5 C         6.697951   -3.467255   -7.57097 C.2        1 UNL1     0.0115
     6 C         8.242409   -3.588489   -7.455753 C.3        1 UNL1     -0.0348
     7 C         6.457708   -4.844051   -8.360721 C.2        1 UNL1     0.2441
     8 O         6.597155   -4.949741   -9.571469 O.2        1 UNL1     -0.2702
     9 N         6.331755   -5.979048   -7.540923 N.am        1 UNL1     -0.2772
     10 C         5.020302   -6.155985   -7.163951 C.2        1 UNL1     0.1049
     11 C         4.610937   -5.444213   -6.129532 C.2        1 UNL1     0.0801
     12 C         2.690923   -6.248748   -8.070992 C.ar        1 UNL1     0.0753
     13 C         2.340188   -5.307712   -7.051166 C.ar        1 UNL1     0.0305
     14 C         3.261139   -4.976519   -5.966172 C.2        1 UNL1     0.0924
     15 N         5.318326   -4.723039   -5.242946 N.pl3        1 UNL1     -0.3170
     16 C         4.414819   -4.28459   -4.212562 C.3        1 UNL1     0.1275
     17 N         3.070455   -4.212141   -4.894588 N.2        1 UNL1     -0.2557
     18 C         4.311375   -5.413492   -3.191493 C.3        1 UNL1     0.0016
     19 C         5.708967   -5.752729   -2.698293 C.3        1 UNL1     0.0026
     20 N         6.297322   -4.560604   -2.103563 N.3        1 UNL1     -0.3018
     21 C         6.382694   -3.399858   -2.992242 C.3        1 UNL1     0.0026
     22 C         4.967304   -3.073802   -3.472089 C.3        1 UNL1     0.0016
     23 C         7.496705   -4.844111   -1.34084 C.3        1 UNL1     0.0012
     24 C         8.06993   -6.216224   -1.728754 C.3        1 UNL1     -0.0339
     25 C         9.357815   -6.528474   -0.949069 C.3        1 UNL1     -0.0615
     26 C         7.019691   -7.294929   -1.528324 C.3        1 UNL1     -0.0615
     27 C         1.765805   -6.649984   -9.031868 C.ar        1 UNL1     0.1347
     28 C         0.453896   -6.211147   -9.051041 C.ar        1 UNL1     0.0342
     29 C         0.144953   -5.248085   -8.067053 C.ar        1 UNL1     0.1435
     30 C         1.071499   -4.809547   -7.120261 C.ar        1 UNL1     0.0774
     31 O         -1.11859   -4.805665   -7.886139 O.3        1 UNL1     -0.4436
     32 C         -1.121813   -4.248522   -6.563092 C.3        1 UNL1     0.3143
     33 C         0.324778   -3.90004   -6.276477 C.2        1 UNL1     0.2504
     34 C         -0.655106   -6.783476   -9.889286 C.3        1 UNL1     -0.0327
     35 O         -1.844646   -3.012735   -6.623048 O.2        1 UNL1     -0.4528
     36 C         -3.428996   -2.566857   -3.202651 C.3        1 UNL1     0.0854
     37 C         -2.740431   -2.516512   -1.784601 C.3        1 UNL1     0.0236
     38 C         -3.072013   -1.20831   -0.91834 C.3        1 UNL1     0.1131
     39 C         -2.89563   0.225547   -1.562709 C.3        1 UNL1     0.0200
     40 C         -1.549926   0.578518   -2.482997 C.3        1 UNL1     0.0661
     41 C         0.061465   0.289423   -2.03864 C.3        1 UNL1     0.0091
     42 C         1.521535   -0.133552   -3.065622 C.3        1 UNL1     0.0661
     43 C         4.046048   -6.851331   -8.018162 C.2        1 UNL1     0.2131
     44 O         4.333928   -7.908128   -8.550179 O.2        1 UNL1     -0.2851
     45 O         2.201001   -7.534383   -10.016693 O.3        1 UNL1     -0.5056
     46 O         0.762104   -3.048349   -5.535382 O.2        1 UNL1     -0.2836
     47 C         2.282065   1.186478   -5.255811 C.3        1 UNL1     -0.0566
     48 O         2.405711   0.869593   -2.424491 O.3        1 UNL1     -0.3909
     49 C         0.079359   -0.637175   -0.843404 C.3        1 UNL1     -0.0577
     50 O         -1.753395   0.206926   -3.831419 O.3        1 UNL1     -0.3910
     51 O         -4.100729   -1.393961   -3.603302 O.3        1 UNL1     -0.3753
     52 C         -1.315374   -3.159687   -1.806615 C.3        1 UNL1     -0.0564
     53 O         -2.705527   -1.339013   0.531119 O.3        1 UNL1     -0.4608
     54 C         -1.468591   -1.086895   1.06437 C.2        1 UNL1     0.3042
     55 O         -0.571304   -0.400036   0.577606 O.2        1 UNL1     -0.2512
     56 C         -1.262625   -1.698129   2.421088 C.3        1 UNL1     0.0332
     57 C         -4.322533   0.681066   -2.123623 C.3        1 UNL1     -0.0567
     58 C         -1.559151   -5.385695   -5.610673 C.3        1 UNL1     0.0210
     59 C         -3.427428   -0.1779   -3.281234 C.3        1 UNL1     0.0372
     60 C         -2.530132   -2.951331   -4.324874 C.2        1 UNL1     -0.0208
     61 C         -2.394611   -2.425395   -5.542975 C.2        1 UNL1     0.0882
     62 H         1.65725   -0.85502   -5.093919 H        1 UNL1     0.0365
     63 H         2.987479   -1.812498   -6.312097 H        1 UNL1     0.0576
     64 H         5.884049   -0.980253   -5.668649 H        1 UNL1     0.0615
     65 H         4.660321   -3.073514   -7.638067 H        1 UNL1     0.0622
     66 H         -4.170832   -3.373717   -3.120784 H        1 UNL1     0.0645
     67 H         -3.260028   -3.300189   -1.206303 H        1 UNL1     0.0362
     68 H         -4.157581   -1.34059   -0.793575 H        1 UNL1     0.0741
     69 H         -2.839478   0.959065   -0.769484 H        1 UNL1     0.0359
     70 H         -1.607561   1.683825   -2.488965 H        1 UNL1     0.0600
     71 H         0.308342   1.259706   -1.564763 H        1 UNL1     0.0348
     72 H         0.783003   0.302901   -3.753659 H        1 UNL1     0.0602
     73 H         -2.032293   -3.856358   -4.079252 H        1 UNL1     0.0628
     74 H         -2.823694   -1.472441   -5.854426 H        1 UNL1     0.1022
     75 H         8.523198   -4.16701   -6.542788 H        1 UNL1     0.0279
     76 H         8.746097   -4.139828   -8.246572 H        1 UNL1     0.0279
     77 H         8.731307   -2.623004   -7.259494 H        1 UNL1     0.0279
     78 H         6.879671   -5.850846   -6.69273 H        1 UNL1     0.1553
     79 H         6.302966   -4.840115   -5.088966 H        1 UNL1     0.1484
     80 H         3.662926   -5.091997   -2.367526 H        1 UNL1     0.0317
     81 H         3.841363   -6.298737   -3.633174 H        1 UNL1     0.0317
     82 H         6.342227   -6.145083   -3.507584 H        1 UNL1     0.0428
     83 H         5.612188   -6.560958   -1.972725 H        1 UNL1     0.0428
     84 H         6.753783   -2.49611   -2.498944 H        1 UNL1     0.0428
     85 H         7.09263   -3.56575   -3.814305 H        1 UNL1     0.0428
     86 H         5.04976   -2.146633   -4.008322 H        1 UNL1     0.0317
     87 H         4.331495   -2.816302   -2.616205 H        1 UNL1     0.0317
     88 H         8.242363   -4.074067   -1.578163 H        1 UNL1     0.0429
     89 H         7.306069   -4.785387   -0.261496 H        1 UNL1     0.0429
     90 H         8.301265   -6.218872   -2.800524 H        1 UNL1     0.0308
     91 H         9.953054   -7.294651   -1.454802 H        1 UNL1     0.0233
     92 H         9.963061   -5.62727   -0.826124 H        1 UNL1     0.0233
     93 H         9.153924   -6.900231   0.062396 H        1 UNL1     0.0233
     94 H         7.219487   -8.14429   -2.19052 H        1 UNL1     0.0233
     95 H         7.04855   -7.657471   -0.496969 H        1 UNL1     0.0233
     96 H         6.01537   -6.918717   -1.742269 H        1 UNL1     0.0233
     97 H         -0.296578   -7.142033   -10.84956 H        1 UNL1     0.0280
     98 H         -1.135885   -7.644773   -9.407338 H        1 UNL1     0.0280
     99 H         -1.417025   -6.008219   -10.072455 H        1 UNL1     0.0280
     100 H         3.131621   -7.537544   -10.156547 H        1 UNL1     0.2922
     101 H         2.754194   1.254642   -6.23566 H        1 UNL1     0.0236
     102 H         2.627826   1.967934   -4.579971 H        1 UNL1     0.0236
     103 H         1.220723   1.423142   -5.439481 H        1 UNL1     0.0236
     104 H         2.027161   1.07929   -1.548307 H        1 UNL1     0.2098
     105 H         -0.748731   -1.340616   -0.808047 H        1 UNL1     0.0234
     106 H         1.023904   -1.157293   -0.68454 H        1 UNL1     0.0234
     107 H         0.0   0.0   0.0 H        1 UNL1     0.0234
     108 H         -1.695862   -0.766978   -3.875796 H        1 UNL1     0.2098
     109 H         -0.653831   -2.680064   -2.541486 H        1 UNL1     0.0234
     110 H         -0.830012   -3.164241   -0.824706 H        1 UNL1     0.0234
     111 H         -1.354275   -4.220135   -2.089253 H        1 UNL1     0.0234
     112 H         -0.605267   -2.56922   2.34092 H        1 UNL1     0.0342
     113 H         -0.872157   -0.97878   3.139361 H        1 UNL1     0.0342
     114 H         -2.236802   -2.044447   2.792852 H        1 UNL1     0.0342
     115 H         -4.272087   1.658645   -2.622605 H        1 UNL1     0.0234
     116 H         -4.768599   -0.024282   -2.827581 H        1 UNL1     0.0234
     117 H         -5.062445   0.88458   -1.330494 H        1 UNL1     0.0234
     118 H         -0.766541   -6.14266   -5.477333 H        1 UNL1     0.0309
     119 H         -1.87813   -5.024201   -4.627933 H        1 UNL1     0.0309
     120 H         -2.398989   -5.966578   -6.007349 H        1 UNL1     0.0309
     121 H         -2.893698   -0.334725   -2.344273 H        1 UNL1     0.0524
     122 H         -2.682709   0.102809   -4.044539 H        1 UNL1     0.0524
     123 H         -4.144087   0.631347   -3.173467 H        1 UNL1     0.0524
@<TRIPOS>BOND
     1     1     2    1
     2     1    42    1
     3     2     3    2
     4     3     4    1
     5     4     5    2
     6     5     7    1
     7     6    75    1
     8     6    76    1
     9     6    77    1
    10     7     9   am
    11     9    10    1
    12    10    11    2
    13    10    43    1
    14    11    14    1
    15    11    15    1
    16    12    13   ar
    17    12    27   ar
    18    12    43    1
    19    13    14    1
    20    13    30   ar
    21    14    17    2
    22    15    16    1
    23    16    17    1
    24    16    18    1
    25    16    22    1
    26    18    19    1
    27    19    20    1
    28    20    21    1
    29    21    22    1
    30    23    24    1
    31    23    88    1
    32    23    89    1
    33    24    25    1
    34    24    26    1
    35    24    90    1
    36    25    91    1
    37    25    92    1
    38    25    93    1
    39    26    94    1
    40    26    95    1
    41    26    96    1
    42    27    28   ar
    43    28    29   ar
    44    29    30   ar
    45    29    31    1
    46    30    33    1
    47    31    32    1
    48    32    33    1
    49    32    35    1
    50    34    97    1
    51    34    98    1
    52    34    99    1
    53    35    61    1
    54    36    37    1
    55    36    60    1
    56    37    38    1
    57    38    39    1
    58    39    40    1
    59    40    41    1
    60    41    42    1
    61    45   100    1
    62    47   101    1
    63    47   102    1
    64    47   103    1
    65    48   104    1
    66    49   105    1
    67    49   106    1
    68    49   107    1
    69    50   108    1
    70    51    59    1
    71    52   109    1
    72    52   110    1
    73    52   111    1
    74    53    54    1
    75    54    55    2
    76    54    56    1
    77    56   112    1
    78    56   113    1
    79    56   114    1
    80    57   115    1
    81    57   116    1
    82    57   117    1
    83    58   118    1
    84    58   119    1
    85    58   120    1
    86    59   121    1
    87    59   122    1
    88    59   123    1
    89    60    61    2
    90     1    47    1
    91     1    62    1
    92     2    63    1
    93     3    64    1
    94     4    65    1
    95     5     6    1
    96     7     8    2
    97     9    78    1
    98    15    79    1
    99    18    80    1
   100    18    81    1
   101    19    82    1
   102    19    83    1
   103    20    23    1
   104    21    84    1
   105    21    85    1
   106    22    86    1
   107    22    87    1
   108    27    45    1
   109    28    34    1
   110    32    58    1
   111    33    46    2
   112    36    51    1
   113    36    66    1
   114    37    52    1
   115    37    67    1
   116    38    53    1
   117    38    68    1
   118    42    48    1
   119    42    72    1
   120    43    44    2
   121    60    73    1
   122    61    74    1
   123    39    69    1
   124    39    57    1
   125    40    70    1
   126    40    50    1
   127    41    71    1
   128    41    49    1
