@<TRIPOS>MOLECULE
*****
 123 128 0 0 0
SMALL
GASTEIGER

@<TRIPOS>ATOM
     1 C         4.968991   2.245572   0.527716 C.3        1 UNL1     0.0009
     2 C         6.354021   3.125894   -0.3347 C.2        1 UNL1     -0.0787
     3 C         7.665943   3.107457   -0.946717 C.2        1 UNL1     -0.0649
     4 C         8.44897   4.364158   -1.767648 C.2        1 UNL1     -0.0542
     5 C         9.473629   4.686442   -2.691383 C.2        1 UNL1     0.0115
     6 C         10.692667   4.114361   -3.465974 C.3        1 UNL1     -0.0348
     7 C         9.448492   6.12171   -3.409966 C.2        1 UNL1     0.2441
     8 O         10.171566   7.048383   -3.070899 O.2        1 UNL1     -0.2702
     9 N         8.730987   6.163019   -4.618118 N.am        1 UNL1     -0.2772
     10 C         7.404643   6.440998   -4.379658 C.2        1 UNL1     0.1049
     11 C         6.646583   5.414096   -4.040482 C.2        1 UNL1     0.0801
     12 C         5.897655   8.01047   -3.145527 C.ar        1 UNL1     0.0753
     13 C         5.234675   6.848799   -2.636031 C.ar        1 UNL1     0.0305
     14 C         5.505598   5.516559   -3.171558 C.2        1 UNL1     0.0924
     15 N         6.905203   4.096051   -4.089484 N.pl3        1 UNL1     -0.3170
     16 C         5.688115   3.397357   -3.772028 C.3        1 UNL1     0.1275
     17 N         4.921051   4.35481   -2.89304 N.2        1 UNL1     -0.2557
     18 C         4.886911   3.27458   -5.064583 C.3        1 UNL1     0.0016
     19 C         5.751434   2.586829   -6.109183 C.3        1 UNL1     0.0026
     20 N         6.138868   1.276065   -5.606372 N.3        1 UNL1     -0.3018
     21 C         6.862019   1.287466   -4.333072 C.3        1 UNL1     0.0026
     22 C         5.973455   1.978613   -3.297377 C.3        1 UNL1     0.0016
     23 C         6.707246   0.424086   -6.631907 C.3        1 UNL1     0.0012
     24 C         5.623641   -0.014026   -7.629711 C.3        1 UNL1     -0.0339
     25 C         5.884262   -1.43545   -8.154769 C.3        1 UNL1     -0.0615
     26 C         4.250277   0.103202   -6.991819 C.3        1 UNL1     -0.0615
     27 C         5.547624   9.288176   -2.71534 C.ar        1 UNL1     0.1347
     28 C         4.527673   9.531373   -1.812785 C.ar        1 UNL1     0.0342
     29 C         3.921964   8.369994   -1.287923 C.ar        1 UNL1     0.1435
     30 C         4.286674   7.082138   -1.682426 C.ar        1 UNL1     0.0774
     31 O         2.840244   8.442152   -0.481894 O.3        1 UNL1     -0.4436
     32 C         2.249238   7.135664   -0.550264 C.3        1 UNL1     0.3143
     33 C         3.376132   6.21244   -0.967371 C.2        1 UNL1     0.2504
     34 C         3.931323   10.874824   -1.49718 C.3        1 UNL1     -0.0327
     35 O         1.878618   6.765463   0.783469 O.2        1 UNL1     -0.4528
     36 C         -1.140414   4.491781   0.431468 C.3        1 UNL1     0.0854
     37 C         -1.28327   3.142706   -0.372964 C.3        1 UNL1     0.0236
     38 C         -1.789781   1.890654   0.49165 C.3        1 UNL1     0.1131
     39 C         -1.070324   1.535372   1.854891 C.3        1 UNL1     0.0200
     40 C         0.593979   1.561556   1.963737 C.3        1 UNL1     0.0661
     41 C         1.671788   0.807311   0.892733 C.3        1 UNL1     0.0091
     42 C         3.357673   1.296534   0.359953 C.3        1 UNL1     0.0661
     43 C         6.909279   7.815556   -4.21365 C.2        1 UNL1     0.2131
     44 O         7.248892   8.69254   -4.987148 O.2        1 UNL1     -0.2851
     45 O         6.27305   10.362305   -3.226653 O.3        1 UNL1     -0.5056
     46 O         3.504384   5.029976   -0.74113 O.2        1 UNL1     -0.2836
     47 C         5.3453   1.968067   2.008042 C.3        1 UNL1     -0.0566
     48 O         3.9384   -0.051939   0.568498 O.3        1 UNL1     -0.3909
     49 C         0.916688   0.398851   -0.352449 C.3        1 UNL1     -0.0577
     50 O         1.055234   2.859885   2.278871 O.3        1 UNL1     -0.3910
     51 O         -1.303127   4.396175   1.828541 O.3        1 UNL1     -0.3753
     52 C         -0.18108   3.001774   -1.473084 C.3        1 UNL1     -0.0564
     53 O         -2.249839   0.731251   -0.342889 O.3        1 UNL1     -0.4608
     54 C         -2.053653   -0.591498   -0.043264 C.2        1 UNL1     0.3042
     55 O         -1.222711   -1.353583   -0.535809 O.2        1 UNL1     -0.2512
     56 C         -2.9444   -1.097806   1.055343 C.3        1 UNL1     0.0332
     57 C         -1.905214   2.221592   3.033974 C.3        1 UNL1     -0.0567
     58 C         1.201259   7.188549   -1.686255 C.3        1 UNL1     0.0210
     59 C         -2.518959   4.949799   2.329658 C.3        1 UNL1     0.0372
     60 C         0.12907   5.232412   0.196867 C.2        1 UNL1     -0.0208
     61 C         0.95806   5.82186   1.059463 C.2        1 UNL1     0.0882
     62 H         4.395817   3.180521   0.520509 H        1 UNL1     0.0365
     63 H         5.981766   4.152414   -0.322354 H        1 UNL1     0.0576
     64 H         8.224826   2.177748   -1.074784 H        1 UNL1     0.0615
     65 H         7.86063   5.249354   -1.511198 H        1 UNL1     0.0622
     66 H         -1.940999   5.133873   0.037985 H        1 UNL1     0.0645
     67 H         -2.148757   3.316194   -1.035833 H        1 UNL1     0.0362
     68 H         -2.788871   2.255144   0.775355 H        1 UNL1     0.0741
     69 H         -1.309139   0.513663   2.118495 H        1 UNL1     0.0359
     70 H         0.733088   0.984298   2.897805 H        1 UNL1     0.0600
     71 H         1.797305   -0.169088   1.400522 H        1 UNL1     0.0348
     72 H         3.163856   1.844161   1.293685 H        1 UNL1     0.0602
     73 H         0.270114   5.361696   -0.84747 H        1 UNL1     0.0628
     74 H         0.916726   5.691897   2.141423 H        1 UNL1     0.1022
     75 H         11.355124   3.533004   -2.780256 H        1 UNL1     0.0279
     76 H         10.474219   3.391768   -4.249051 H        1 UNL1     0.0279
     77 H         11.379197   4.89845   -3.817517 H        1 UNL1     0.0279
     78 H         8.776311   5.254116   -5.074098 H        1 UNL1     0.1553
     79 H         7.634272   3.691905   -4.648106 H        1 UNL1     0.1484
     80 H         3.971052   2.705317   -4.864813 H        1 UNL1     0.0317
     81 H         4.571395   4.259768   -5.424453 H        1 UNL1     0.0317
     82 H         6.635137   3.188986   -6.366842 H        1 UNL1     0.0428
     83 H         5.161525   2.511171   -7.023149 H        1 UNL1     0.0428
     84 H         7.070869   0.288297   -3.938286 H        1 UNL1     0.0428
     85 H         7.85457   1.748564   -4.430787 H        1 UNL1     0.0428
     86 H         6.473677   1.85088   -2.355331 H        1 UNL1     0.0317
     87 H         5.041107   1.415496   -3.168063 H        1 UNL1     0.0317
     88 H         7.467705   1.001992   -7.173222 H        1 UNL1     0.0429
     89 H         7.215353   -0.444045   -6.192644 H        1 UNL1     0.0429
     90 H         5.618542   0.677153   -8.480863 H        1 UNL1     0.0308
     91 H         6.137351   -2.12028   -7.339873 H        1 UNL1     0.0233
     92 H         5.009237   -1.817619   -8.6857 H        1 UNL1     0.0233
     93 H         6.715242   -1.470761   -8.869654 H        1 UNL1     0.0233
     94 H         3.501734   -0.402727   -7.611138 H        1 UNL1     0.0233
     95 H         4.253069   -0.374988   -6.00831 H        1 UNL1     0.0233
     96 H         3.952491   1.148978   -6.875012 H        1 UNL1     0.0233
     97 H         2.864669   10.904627   -1.698654 H        1 UNL1     0.0280
     98 H         4.04455   11.139281   -0.437699 H        1 UNL1     0.0280
     99 H         4.420613   11.649082   -2.110544 H        1 UNL1     0.0280
     100 H         7.207508   10.259392   -3.184001 H        1 UNL1     0.2922
     101 H         4.815555   2.663572   2.658655 H        1 UNL1     0.0236
     102 H         6.420034   1.978968   2.1864 H        1 UNL1     0.0236
     103 H         5.015663   0.96902   2.338853 H        1 UNL1     0.0236
     104 H         3.204231   -0.658637   0.787324 H        1 UNL1     0.2098
     105 H         0.685092   1.219542   -1.02672 H        1 UNL1     0.0234
     106 H         1.361977   -0.429052   -0.90401 H        1 UNL1     0.0234
     107 H         0.0   -0.0   0.0 H        1 UNL1     0.0234
     108 H         1.998783   2.900827   2.030262 H        1 UNL1     0.2098
     109 H         -0.230679   3.808776   -2.217396 H        1 UNL1     0.0234
     110 H         0.832527   2.944301   -1.061941 H        1 UNL1     0.0234
     111 H         -0.291888   2.06762   -2.039675 H        1 UNL1     0.0234
     112 H         -2.723182   -2.149975   1.258688 H        1 UNL1     0.0342
     113 H         -2.859151   -0.498599   1.960621 H        1 UNL1     0.0342
     114 H         -3.98548   -1.03316   0.710181 H        1 UNL1     0.0342
     115 H         -1.59394   1.854876   4.021808 H        1 UNL1     0.0234
     116 H         -1.835746   3.311052   3.05131 H        1 UNL1     0.0234
     117 H         -2.974494   1.9485   3.032516 H        1 UNL1     0.0234
     118 H         0.168355   7.131446   -1.300438 H        1 UNL1     0.0309
     119 H         1.298489   8.076104   -2.319496 H        1 UNL1     0.0309
     120 H         1.267355   6.326938   -2.359578 H        1 UNL1     0.0309
     121 H         -2.346734   5.239877   3.365781 H        1 UNL1     0.0524
     122 H         -2.825348   5.854289   1.778242 H        1 UNL1     0.0524
     123 H         -3.317469   4.215392   2.273795 H        1 UNL1     0.0524
@<TRIPOS>BOND
     1     1     2    1
     2     1    42    1
     3     2     3    2
     4     3     4    1
     5     4     5    2
     6     5     7    1
     7     6    75    1
     8     6    76    1
     9     6    77    1
    10     7     9   am
    11     9    10    1
    12    10    11    2
    13    10    43    1
    14    11    14    1
    15    11    15    1
    16    12    13   ar
    17    12    27   ar
    18    12    43    1
    19    13    14    1
    20    13    30   ar
    21    14    17    2
    22    15    16    1
    23    16    17    1
    24    16    18    1
    25    16    22    1
    26    18    19    1
    27    19    20    1
    28    20    21    1
    29    21    22    1
    30    23    24    1
    31    23    88    1
    32    23    89    1
    33    24    25    1
    34    24    26    1
    35    24    90    1
    36    25    91    1
    37    25    92    1
    38    25    93    1
    39    26    94    1
    40    26    95    1
    41    26    96    1
    42    27    28   ar
    43    28    29   ar
    44    29    30   ar
    45    29    31    1
    46    30    33    1
    47    31    32    1
    48    32    33    1
    49    32    35    1
    50    34    97    1
    51    34    98    1
    52    34    99    1
    53    35    61    1
    54    36    37    1
    55    36    60    1
    56    37    38    1
    57    38    39    1
    58    39    40    1
    59    40    41    1
    60    41    42    1
    61    45   100    1
    62    47   101    1
    63    47   102    1
    64    47   103    1
    65    48   104    1
    66    49   105    1
    67    49   106    1
    68    49   107    1
    69    50   108    1
    70    51    59    1
    71    52   109    1
    72    52   110    1
    73    52   111    1
    74    53    54    1
    75    54    55    2
    76    54    56    1
    77    56   112    1
    78    56   113    1
    79    56   114    1
    80    57   115    1
    81    57   116    1
    82    57   117    1
    83    58   118    1
    84    58   119    1
    85    58   120    1
    86    59   121    1
    87    59   122    1
    88    59   123    1
    89    60    61    2
    90     1    47    1
    91     1    62    1
    92     2    63    1
    93     3    64    1
    94     4    65    1
    95     5     6    1
    96     7     8    2
    97     9    78    1
    98    15    79    1
    99    18    80    1
   100    18    81    1
   101    19    82    1
   102    19    83    1
   103    20    23    1
   104    21    84    1
   105    21    85    1
   106    22    86    1
   107    22    87    1
   108    27    45    1
   109    28    34    1
   110    32    58    1
   111    33    46    2
   112    36    51    1
   113    36    66    1
   114    37    52    1
   115    37    67    1
   116    38    53    1
   117    38    68    1
   118    42    48    1
   119    42    72    1
   120    43    44    2
   121    60    73    1
   122    61    74    1
   123    39    69    1
   124    39    57    1
   125    40    70    1
   126    40    50    1
   127    41    71    1
   128    41    49    1
