@<TRIPOS>MOLECULE
*****
 123 128 0 0 0
SMALL
GASTEIGER

@<TRIPOS>ATOM
     1 C         4.750855   2.629037   -0.718898 C.3        1 UNL1     0.0009
     2 C         6.218925   2.87493   -1.824042 C.2        1 UNL1     -0.0787
     3 C         7.604988   2.611191   -2.148567 C.2        1 UNL1     -0.0649
     4 C         8.460611   3.092815   -3.527808 C.2        1 UNL1     -0.0542
     5 C         9.597239   2.84205   -4.335442 C.2        1 UNL1     0.0115
     6 C         10.930854   2.04947   -4.41675 C.3        1 UNL1     -0.0348
     7 C         9.633515   3.428696   -5.829269 C.2        1 UNL1     0.2441
     8 O         10.273211   4.424804   -6.137626 O.2        1 UNL1     -0.2702
     9 N         9.09566   2.576929   -6.809756 N.am        1 UNL1     -0.2772
     10 C         7.7413   2.784667   -6.935756 C.2        1 UNL1     0.1049
     11 C         6.972718   2.158148   -6.063417 C.2        1 UNL1     0.0801
     12 C         6.027901   4.586533   -7.209394 C.ar        1 UNL1     0.0753
     13 C         5.332896   3.983764   -6.112924 C.ar        1 UNL1     0.0305
     14 C         5.716487   2.673988   -5.591008 C.2        1 UNL1     0.0924
     15 N         7.274   1.178832   -5.193534 N.pl3        1 UNL1     -0.3170
     16 C         6.04487   0.72738   -4.597141 C.3        1 UNL1     0.1275
     17 N         5.132175   1.927806   -4.657885 N.2        1 UNL1     -0.2557
     18 C         5.441095   -0.311651   -5.537126 C.3        1 UNL1     0.0016
     19 C         6.466073   -1.410031   -5.770734 C.3        1 UNL1     0.0026
     20 N         6.815492   -2.0043   -4.487855 N.3        1 UNL1     -0.3018
     21 C         7.348059   -1.06975   -3.494197 C.3        1 UNL1     0.0026
     22 C         6.300476   0.02244   -3.271519 C.3        1 UNL1     0.0016
     23 C         7.549564   -3.246673   -4.623099 C.3        1 UNL1     0.0012
     24 C         6.633376   -4.358022   -5.159064 C.3        1 UNL1     -0.0339
     25 C         6.760413   -4.504826   -6.684308 C.3        1 UNL1     -0.0615
     26 C         6.928406   -5.6657   -4.44512 C.3        1 UNL1     -0.0615
     27 C         5.582738   5.77699   -7.779271 C.ar        1 UNL1     0.1347
     28 C         4.437318   6.433628   -7.365882 C.ar        1 UNL1     0.0342
     29 C         3.796758   5.847957   -6.253301 C.ar        1 UNL1     0.1435
     30 C         4.251625   4.675272   -5.649045 C.ar        1 UNL1     0.0774
     31 O         2.609053   6.306746   -5.801774 O.3        1 UNL1     -0.4436
     32 C         2.072283   5.223337   -5.027838 C.3        1 UNL1     0.3143
     33 C         3.273749   4.39569   -4.618336 C.2        1 UNL1     0.2504
     34 C         3.76299   7.568193   -8.085703 C.3        1 UNL1     -0.0327
     35 O         1.525301   5.786278   -3.829021 O.2        1 UNL1     -0.4528
     36 C         -1.344548   3.512927   -2.827062 C.3        1 UNL1     0.0854
     37 C         -1.33126   1.964402   -2.528038 C.3        1 UNL1     0.0236
     38 C         -1.919735   1.547584   -1.095661 C.3        1 UNL1     0.1131
     39 C         -1.393024   2.269211   0.209751 C.3        1 UNL1     0.0200
     40 C         0.237023   2.556156   0.417227 C.3        1 UNL1     0.0661
     41 C         1.478717   1.416098   0.227289 C.3        1 UNL1     0.0091
     42 C         3.208568   1.625095   -0.346591 C.3        1 UNL1     0.0661
     43 C         7.187403   3.85535   -7.77789 C.2        1 UNL1     0.2131
     44 O         7.608651   4.034621   -8.906229 O.2        1 UNL1     -0.2851
     45 O         6.342331   6.320985   -8.812966 O.3        1 UNL1     -0.5056
     46 O         3.402668   3.683399   -3.647833 O.2        1 UNL1     -0.2836
     47 C         4.919062   3.445345   0.590809 C.3        1 UNL1     -0.0566
     48 O         3.792472   0.831204   0.76152 O.3        1 UNL1     -0.3909
     49 C         0.922089   0.201943   -0.482277 C.3        1 UNL1     -0.0577
     50 O         0.610311   3.781266   -0.180673 O.3        1 UNL1     -0.3910
     51 O         -1.70294   4.345762   -1.747537 O.3        1 UNL1     -0.3753
     52 C         -0.079154   1.262756   -3.148419 C.3        1 UNL1     -0.0564
     53 O         -2.221453   0.08253   -0.973564 O.3        1 UNL1     -0.4608
     54 C         -2.35097   -0.607208   0.203474 C.2        1 UNL1     0.3042
     55 O         -1.595615   -1.469162   0.651036 O.2        1 UNL1     -0.2512
     56 C         -3.536197   -0.181721   1.022566 C.3        1 UNL1     0.0332
     57 C         -2.407915   3.458774   0.546073 C.3        1 UNL1     -0.0567
     58 C         1.196829   4.388975   -5.991659 C.3        1 UNL1     0.0210
     59 C         -2.309948   5.582118   -2.120136 C.3        1 UNL1     0.0372
     60 C         -0.076682   4.056365   -3.385944 C.2        1 UNL1     -0.0208
     61 C         0.602594   5.16069   -3.073219 C.2        1 UNL1     0.0882
     62 H         4.157622   3.25018   -1.400784 H        1 UNL1     0.0365
     63 H         5.81898   3.600506   -2.535415 H        1 UNL1     0.0576
     64 H         8.203316   1.902899   -1.57113 H        1 UNL1     0.0615
     65 H         7.816041   3.849445   -3.983356 H        1 UNL1     0.0622
     66 H         -2.098852   3.635022   -3.617102 H        1 UNL1     0.0645
     67 H         -2.097502   1.553446   -3.208146 H        1 UNL1     0.0362
     68 H         -2.959366   1.887825   -1.217831 H        1 UNL1     0.0741
     69 H         -1.637266   1.657657   1.068096 H        1 UNL1     0.0359
     70 H         0.257602   2.761473   1.504647 H        1 UNL1     0.0600
     71 H         1.558574   1.042267   1.266919 H        1 UNL1     0.0348
     72 H         2.867057   2.625173   -0.042403 H        1 UNL1     0.0602
     73 H         0.208741   3.47896   -4.229973 H        1 UNL1     0.0628
     74 H         0.410437   5.774165   -2.192332 H        1 UNL1     0.1022
     75 H         11.072194   1.425061   -3.50178 H        1 UNL1     0.0279
     76 H         11.011252   1.315834   -5.215739 H        1 UNL1     0.0279
     77 H         11.816007   2.700881   -4.373534 H        1 UNL1     0.0279
     78 H         9.232339   1.60709   -6.532611 H        1 UNL1     0.1553
     79 H         8.087067   0.595846   -5.270881 H        1 UNL1     0.1484
     80 H         4.523048   -0.70946   -5.088011 H        1 UNL1     0.0317
     81 H         5.151826   0.144074   -6.490168 H        1 UNL1     0.0317
     82 H         7.359647   -1.02985   -6.287358 H        1 UNL1     0.0428
     83 H         6.015693   -2.139204   -6.444911 H        1 UNL1     0.0428
     84 H         7.527212   -1.525316   -2.515332 H        1 UNL1     0.0428
     85 H         8.330501   -0.675719   -3.788923 H        1 UNL1     0.0428
     86 H         6.664039   0.608803   -2.448118 H        1 UNL1     0.0317
     87 H         5.376034   -0.41929   -2.879883 H        1 UNL1     0.0317
     88 H         8.362577   -3.086334   -5.343235 H        1 UNL1     0.0429
     89 H         8.014563   -3.540517   -3.673254 H        1 UNL1     0.0429
     90 H         5.59233   -4.113051   -4.917352 H        1 UNL1     0.0308
     91 H         7.79258   -4.716886   -6.978865 H        1 UNL1     0.0233
     92 H         6.111514   -5.30368   -7.050874 H        1 UNL1     0.0233
     93 H         6.45765   -3.595799   -7.218012 H        1 UNL1     0.0233
     94 H         6.419297   -6.494371   -4.949051 H        1 UNL1     0.0233
     95 H         8.002926   -5.868117   -4.465054 H        1 UNL1     0.0233
     96 H         6.593979   -5.636384   -3.404319 H        1 UNL1     0.0233
     97 H         2.8568   7.889686   -7.581031 H        1 UNL1     0.0280
     98 H         4.403661   8.457493   -8.148486 H        1 UNL1     0.0280
     99 H         3.495688   7.250476   -9.10683 H        1 UNL1     0.0280
     100 H         5.860919   6.495828   -9.602457 H        1 UNL1     0.2922
     101 H         4.032664   3.327667   1.213792 H        1 UNL1     0.0236
     102 H         5.159082   4.493395   0.414839 H        1 UNL1     0.0236
     103 H         5.749053   3.06723   1.210758 H        1 UNL1     0.0236
     104 H         4.053689   1.455891   1.466149 H        1 UNL1     0.2098
     105 H         0.718487   0.353595   -1.53933 H        1 UNL1     0.0234
     106 H         1.494808   -0.713676   -0.335439 H        1 UNL1     0.0234
     107 H         0.0   -0.0   0.0 H        1 UNL1     0.0234
     108 H         0.470366   3.689042   -1.142794 H        1 UNL1     0.2098
     109 H         0.863141   1.67549   -2.76184 H        1 UNL1     0.0234
     110 H         -0.084922   0.175569   -3.015248 H        1 UNL1     0.0234
     111 H         -0.037941   1.397326   -4.237519 H        1 UNL1     0.0234
     112 H         -3.578295   -0.765205   1.947294 H        1 UNL1     0.0342
     113 H         -3.52528   0.886333   1.234658 H        1 UNL1     0.0342
     114 H         -4.446589   -0.39741   0.446519 H        1 UNL1     0.0342
     115 H         -3.425334   3.087551   0.731113 H        1 UNL1     0.0234
     116 H         -2.116035   4.060752   1.408903 H        1 UNL1     0.0234
     117 H         -2.581544   4.142159   -0.302915 H        1 UNL1     0.0234
     118 H         0.185089   4.815623   -6.107245 H        1 UNL1     0.0309
     119 H         1.647527   4.262847   -6.981187 H        1 UNL1     0.0309
     120 H         1.003329   3.378429   -5.615547 H        1 UNL1     0.0309
     121 H         -1.582482   6.14317   -2.706114 H        1 UNL1     0.0524
     122 H         -3.202833   5.436536   -2.750691 H        1 UNL1     0.0524
     123 H         -2.591676   6.144477   -1.234429 H        1 UNL1     0.0524
@<TRIPOS>BOND
     1     1     2    1
     2     1    42    1
     3     2     3    2
     4     3     4    1
     5     4     5    2
     6     5     7    1
     7     6    75    1
     8     6    76    1
     9     6    77    1
    10     7     9   am
    11     9    10    1
    12    10    11    2
    13    10    43    1
    14    11    14    1
    15    11    15    1
    16    12    13   ar
    17    12    27   ar
    18    12    43    1
    19    13    14    1
    20    13    30   ar
    21    14    17    2
    22    15    16    1
    23    16    17    1
    24    16    18    1
    25    16    22    1
    26    18    19    1
    27    19    20    1
    28    20    21    1
    29    21    22    1
    30    23    24    1
    31    23    88    1
    32    23    89    1
    33    24    25    1
    34    24    26    1
    35    24    90    1
    36    25    91    1
    37    25    92    1
    38    25    93    1
    39    26    94    1
    40    26    95    1
    41    26    96    1
    42    27    28   ar
    43    28    29   ar
    44    29    30   ar
    45    29    31    1
    46    30    33    1
    47    31    32    1
    48    32    33    1
    49    32    35    1
    50    34    97    1
    51    34    98    1
    52    34    99    1
    53    35    61    1
    54    36    37    1
    55    36    60    1
    56    37    38    1
    57    38    39    1
    58    39    40    1
    59    40    41    1
    60    41    42    1
    61    45   100    1
    62    47   101    1
    63    47   102    1
    64    47   103    1
    65    48   104    1
    66    49   105    1
    67    49   106    1
    68    49   107    1
    69    50   108    1
    70    51    59    1
    71    52   109    1
    72    52   110    1
    73    52   111    1
    74    53    54    1
    75    54    55    2
    76    54    56    1
    77    56   112    1
    78    56   113    1
    79    56   114    1
    80    57   115    1
    81    57   116    1
    82    57   117    1
    83    58   118    1
    84    58   119    1
    85    58   120    1
    86    59   121    1
    87    59   122    1
    88    59   123    1
    89    60    61    2
    90     1    47    1
    91     1    62    1
    92     2    63    1
    93     3    64    1
    94     4    65    1
    95     5     6    1
    96     7     8    2
    97     9    78    1
    98    15    79    1
    99    18    80    1
   100    18    81    1
   101    19    82    1
   102    19    83    1
   103    20    23    1
   104    21    84    1
   105    21    85    1
   106    22    86    1
   107    22    87    1
   108    27    45    1
   109    28    34    1
   110    32    58    1
   111    33    46    2
   112    36    51    1
   113    36    66    1
   114    37    52    1
   115    37    67    1
   116    38    53    1
   117    38    68    1
   118    42    48    1
   119    42    72    1
   120    43    44    2
   121    60    73    1
   122    61    74    1
   123    39    69    1
   124    39    57    1
   125    40    70    1
   126    40    50    1
   127    41    71    1
   128    41    49    1
