@<TRIPOS>MOLECULE
*****
 123 128 0 0 0
SMALL
GASTEIGER

@<TRIPOS>ATOM
     1 C         4.581065   2.572665   -1.007725 C.3        1 UNL1     0.0009
     2 C         6.233119   2.351615   -1.819448 C.2        1 UNL1     -0.0787
     3 C         7.672825   2.231475   -1.725333 C.2        1 UNL1     -0.0649
     4 C         8.771574   1.886502   -2.966342 C.2        1 UNL1     -0.0542
     5 C         10.074343   1.41772   -3.266533 C.2        1 UNL1     0.0115
     6 C         11.450499   1.048235   -2.647664 C.3        1 UNL1     -0.0348
     7 C         10.393594   0.910911   -4.755899 C.2        1 UNL1     0.2441
     8 O         11.006154   1.586151   -5.571587 O.2        1 UNL1     -0.2702
     9 N         10.153182   -0.456376   -4.976987 N.am        1 UNL1     -0.2772
     10 C         8.848049   -0.658138   -5.363306 C.2        1 UNL1     0.1049
     11 C         7.957023   -0.725794   -4.390826 C.2        1 UNL1     0.0801
     12 C         7.102512   0.158893   -6.957951 C.ar        1 UNL1     0.0753
     13 C         6.231727   0.266538   -5.827131 C.ar        1 UNL1     0.0305
     14 C         6.591326   -0.297525   -4.528064 C.2        1 UNL1     0.0924
     15 N         8.134143   -0.839355   -3.063325 N.pl3        1 UNL1     -0.3170
     16 C         6.842621   -1.046273   -2.463817 C.3        1 UNL1     0.1275
     17 N         5.875349   -0.377955   -3.410104 N.2        1 UNL1     -0.2557
     18 C         6.543737   -2.540539   -2.538238 C.3        1 UNL1     0.0016
     19 C         7.677186   -3.297368   -1.864375 C.3        1 UNL1     0.0026
     20 N         7.780064   -2.851838   -0.481643 N.3        1 UNL1     -0.3018
     21 C         8.005994   -1.415661   -0.306369 C.3        1 UNL1     0.0026
     22 C         6.853459   -0.675002   -0.986796 C.3        1 UNL1     0.0016
     23 C         8.620168   -3.712502   0.327137 C.3        1 UNL1     0.0012
     24 C         8.040233   -5.134645   0.381375 C.3        1 UNL1     -0.0339
     25 C         7.45754   -5.556555   -0.977491 C.3        1 UNL1     -0.0615
     26 C         9.099377   -6.110957   0.86284 C.3        1 UNL1     -0.0615
     27 C         6.702904   0.591114   -8.220336 C.ar        1 UNL1     0.1347
     28 C         5.447022   1.109163   -8.48194 C.ar        1 UNL1     0.0342
     29 C         4.624288   1.250881   -7.344316 C.ar        1 UNL1     0.1435
     30 C         5.024365   0.855737   -6.067201 C.ar        1 UNL1     0.0774
     31 O         3.334258   1.637389   -7.451265 O.3        1 UNL1     -0.4436
     32 C         2.725834   1.214471   -6.221699 C.3        1 UNL1     0.3143
     33 C         3.867947   1.104295   -5.231926 C.2        1 UNL1     0.2504
     34 C         4.862032   1.35766   -9.844341 C.3        1 UNL1     -0.0327
     35 O         1.885785   2.284651   -5.77194 O.2        1 UNL1     -0.4528
     36 C         -0.948815   0.645923   -3.851602 C.3        1 UNL1     0.0854
     37 C         -0.881514   -0.313096   -2.601292 C.3        1 UNL1     0.0236
     38 C         -1.737286   0.168369   -1.333385 C.3        1 UNL1     0.1131
     39 C         -1.569281   1.643341   -0.787032 C.3        1 UNL1     0.0200
     40 C         -0.052532   2.321177   -0.637199 C.3        1 UNL1     0.0661
     41 C         1.285225   1.605317   0.121457 C.3        1 UNL1     0.0091
     42 C         3.077454   1.748274   -0.243072 C.3        1 UNL1     0.0661
     43 C         8.412099   -0.510449   -6.759905 C.2        1 UNL1     0.2131
     44 O         9.056668   -1.009248   -7.664598 O.2        1 UNL1     -0.2851
     45 O         7.627202   0.492861   -9.258342 O.3        1 UNL1     -0.5056
     46 O         3.834533   1.218279   -4.027043 O.2        1 UNL1     -0.2836
     47 C         4.392206   4.047716   -0.562148 C.3        1 UNL1     -0.0566
     48 O         3.462384   1.981883   1.169858 O.3        1 UNL1     -0.3909
     49 C         0.994955   0.137013   0.338987 C.3        1 UNL1     -0.0577
     50 O         0.347093   2.92821   -1.849442 O.3        1 UNL1     -0.3910
     51 O         -1.600164   1.879425   -3.647521 O.3        1 UNL1     -0.3753
     52 C         0.527261   -0.974603   -2.450582 C.3        1 UNL1     -0.0564
     53 O         -1.943704   -0.905368   -0.305374 O.3        1 UNL1     -0.4608
     54 C         -2.42612   -2.163407   -0.555457 C.2        1 UNL1     0.3042
     55 O         -3.511143   -2.629549   -0.210096 O.2        1 UNL1     -0.2512
     56 C         -1.507554   -3.003589   -1.396317 C.3        1 UNL1     0.0332
     57 C         -2.722672   2.535425   -1.444336 C.3        1 UNL1     -0.0567
     58 C         2.15216   -0.198091   -6.480733 C.3        1 UNL1     0.0210
     59 C         -1.909178   2.176113   -2.28651 C.3        1 UNL1     0.0372
     60 C         0.364943   0.953043   -4.479993 C.2        1 UNL1     -0.0208
     61 C         0.870549   2.112102   -4.903891 C.2        1 UNL1     0.0882
     62 H         4.106456   2.479878   -1.992026 H        1 UNL1     0.0365
     63 H         5.944823   2.357163   -2.872692 H        1 UNL1     0.0576
     64 H         8.182206   2.193997   -0.75981 H        1 UNL1     0.0615
     65 H         8.186585   2.02808   -3.879155 H        1 UNL1     0.0622
     66 H         -1.517379   0.080205   -4.603097 H        1 UNL1     0.0645
     67 H         -1.444508   -1.207852   -2.919111 H        1 UNL1     0.0362
     68 H         -2.747565   0.131785   -1.768725 H        1 UNL1     0.0741
     69 H         -1.948588   1.684813   0.225299 H        1 UNL1     0.0359
     70 H         -0.288395   3.170128   0.032661 H        1 UNL1     0.0600
     71 H         1.162553   2.005085   1.147174 H        1 UNL1     0.0348
     72 H         2.600579   2.616231   -0.721148 H        1 UNL1     0.0602
     73 H         0.873539   0.044554   -4.687904 H        1 UNL1     0.0628
     74 H         0.441696   3.089895   -4.681981 H        1 UNL1     0.1022
     75 H         12.279999   1.525229   -3.223372 H        1 UNL1     0.0279
     76 H         11.636698   1.398408   -1.634857 H        1 UNL1     0.0279
     77 H         11.694436   -0.018399   -2.759412 H        1 UNL1     0.0279
     78 H         10.300301   -0.973649   -4.112775 H        1 UNL1     0.1553
     79 H         8.987028   -1.156521   -2.640329 H        1 UNL1     0.1484
     80 H         5.582991   -2.737851   -2.047522 H        1 UNL1     0.0317
     81 H         6.437338   -2.866975   -3.57832 H        1 UNL1     0.0317
     82 H         8.630403   -3.161121   -2.396097 H        1 UNL1     0.0428
     83 H         7.444715   -4.360688   -1.930387 H        1 UNL1     0.0428
     84 H         7.999622   -1.095126   0.740066 H        1 UNL1     0.0428
     85 H         8.99558   -1.109782   -0.673078 H        1 UNL1     0.0428
     86 H         6.979699   0.359337   -0.725657 H        1 UNL1     0.0317
     87 H         5.902591   -0.942871   -0.510148 H        1 UNL1     0.0317
     88 H         9.612804   -3.757427   -0.139714 H        1 UNL1     0.0429
     89 H         8.757452   -3.302106   1.33585 H        1 UNL1     0.0429
     90 H         7.239816   -5.167836   1.130003 H        1 UNL1     0.0308
     91 H         6.98029   -6.539289   -0.917743 H        1 UNL1     0.0233
     92 H         6.727179   -4.823943   -1.328861 H        1 UNL1     0.0233
     93 H         8.224659   -5.622402   -1.758533 H        1 UNL1     0.0233
     94 H         8.718875   -7.136813   0.811134 H        1 UNL1     0.0233
     95 H         9.984531   -6.047102   0.223787 H        1 UNL1     0.0233
     96 H         9.393741   -5.903199   1.895388 H        1 UNL1     0.0233
     97 H         5.592253   1.210058   -10.634418 H        1 UNL1     0.0280
     98 H         4.033072   0.674081   -10.069732 H        1 UNL1     0.0280
     99 H         4.493179   2.394714   -9.904036 H        1 UNL1     0.0280
     100 H         8.216631   1.223149   -9.328163 H        1 UNL1     0.2922
     101 H         3.339233   4.320316   -0.629918 H        1 UNL1     0.0236
     102 H         5.030741   4.74437   -1.104302 H        1 UNL1     0.0236
     103 H         4.651975   4.19619   0.499298 H        1 UNL1     0.0236
     104 H         3.063971   1.268523   1.705912 H        1 UNL1     0.2098
     105 H         1.634737   -0.535848   -0.226476 H        1 UNL1     0.0234
     106 H         0.95477   -0.16925   1.384222 H        1 UNL1     0.0234
     107 H         0.0   0.0   0.0 H        1 UNL1     0.0234
     108 H         -0.329272   2.710773   -2.519531 H        1 UNL1     0.2098
     109 H         1.201273   -0.71086   -3.277539 H        1 UNL1     0.0234
     110 H         1.011246   -0.743638   -1.495513 H        1 UNL1     0.0234
     111 H         0.46252   -2.070824   -2.457968 H        1 UNL1     0.0234
     112 H         -1.023965   -3.762872   -0.774244 H        1 UNL1     0.0342
     113 H         -2.026024   -3.460322   -2.237999 H        1 UNL1     0.0342
     114 H         -0.722418   -2.351502   -1.803144 H        1 UNL1     0.0342
     115 H         -2.582303   2.650722   -2.527937 H        1 UNL1     0.0234
     116 H         -3.730346   2.147239   -1.283233 H        1 UNL1     0.0234
     117 H         -2.706503   3.58835   -1.114141 H        1 UNL1     0.0234
     118 H         1.731563   -0.649111   -5.564936 H        1 UNL1     0.0309
     119 H         1.393493   -0.215667   -7.269605 H        1 UNL1     0.0309
     120 H         2.92238   -0.915347   -6.784724 H        1 UNL1     0.0309
     121 H         -2.984685   2.056251   -2.158934 H        1 UNL1     0.0524
     122 H         -1.412628   1.485571   -1.584635 H        1 UNL1     0.0524
     123 H         -1.614501   3.194013   -2.047471 H        1 UNL1     0.0524
@<TRIPOS>BOND
     1     1     2    1
     2     1    42    1
     3     2     3    2
     4     3     4    1
     5     4     5    2
     6     5     7    1
     7     6    75    1
     8     6    76    1
     9     6    77    1
    10     7     9   am
    11     9    10    1
    12    10    11    2
    13    10    43    1
    14    11    14    1
    15    11    15    1
    16    12    13   ar
    17    12    27   ar
    18    12    43    1
    19    13    14    1
    20    13    30   ar
    21    14    17    2
    22    15    16    1
    23    16    17    1
    24    16    18    1
    25    16    22    1
    26    18    19    1
    27    19    20    1
    28    20    21    1
    29    21    22    1
    30    23    24    1
    31    23    88    1
    32    23    89    1
    33    24    25    1
    34    24    26    1
    35    24    90    1
    36    25    91    1
    37    25    92    1
    38    25    93    1
    39    26    94    1
    40    26    95    1
    41    26    96    1
    42    27    28   ar
    43    28    29   ar
    44    29    30   ar
    45    29    31    1
    46    30    33    1
    47    31    32    1
    48    32    33    1
    49    32    35    1
    50    34    97    1
    51    34    98    1
    52    34    99    1
    53    35    61    1
    54    36    37    1
    55    36    60    1
    56    37    38    1
    57    38    39    1
    58    39    40    1
    59    40    41    1
    60    41    42    1
    61    45   100    1
    62    47   101    1
    63    47   102    1
    64    47   103    1
    65    48   104    1
    66    49   105    1
    67    49   106    1
    68    49   107    1
    69    50   108    1
    70    51    59    1
    71    52   109    1
    72    52   110    1
    73    52   111    1
    74    53    54    1
    75    54    55    2
    76    54    56    1
    77    56   112    1
    78    56   113    1
    79    56   114    1
    80    57   115    1
    81    57   116    1
    82    57   117    1
    83    58   118    1
    84    58   119    1
    85    58   120    1
    86    59   121    1
    87    59   122    1
    88    59   123    1
    89    60    61    2
    90     1    47    1
    91     1    62    1
    92     2    63    1
    93     3    64    1
    94     4    65    1
    95     5     6    1
    96     7     8    2
    97     9    78    1
    98    15    79    1
    99    18    80    1
   100    18    81    1
   101    19    82    1
   102    19    83    1
   103    20    23    1
   104    21    84    1
   105    21    85    1
   106    22    86    1
   107    22    87    1
   108    27    45    1
   109    28    34    1
   110    32    58    1
   111    33    46    2
   112    36    51    1
   113    36    66    1
   114    37    52    1
   115    37    67    1
   116    38    53    1
   117    38    68    1
   118    42    48    1
   119    42    72    1
   120    43    44    2
   121    60    73    1
   122    61    74    1
   123    39    69    1
   124    39    57    1
   125    40    70    1
   126    40    50    1
   127    41    71    1
   128    41    49    1
