@<TRIPOS>MOLECULE
*****
 123 128 0 0 0
SMALL
GASTEIGER

@<TRIPOS>ATOM
     1 C         3.323864   3.208553   2.942173 C.3        1 UNL1     0.0009
     2 C         4.400281   4.717978   2.940339 C.2        1 UNL1     -0.0787
     3 C         5.713569   5.324086   2.877455 C.2        1 UNL1     -0.0649
     4 C         6.096669   6.971257   2.797334 C.2        1 UNL1     -0.0542
     5 C         7.093625   7.91583   2.449573 C.2        1 UNL1     0.0115
     6 C         8.586311   8.07836   2.051082 C.3        1 UNL1     -0.0348
     7 C         6.666182   9.44494   2.212708 C.2        1 UNL1     0.2441
     8 O         6.851556   10.323961   3.043059 O.2        1 UNL1     -0.2702
     9 N         6.304384   9.757343   0.890718 N.am        1 UNL1     -0.2772
     10 C         4.963339   9.522281   0.691554 C.2        1 UNL1     0.1049
     11 C         4.625128   8.274856   0.419955 C.2        1 UNL1     0.0801
     12 C         2.70522   9.961231   1.674182 C.ar        1 UNL1     0.0753
     13 C         2.464495   8.555797   1.550033 C.ar        1 UNL1     0.0305
     14 C         3.367688   7.688373   0.797126 C.2        1 UNL1     0.0924
     15 N         5.395377   7.221773   0.097065 N.pl3        1 UNL1     -0.3170
     16 C         4.5247   6.136578   -0.269714 C.3        1 UNL1     0.1275
     17 N         3.251557   6.397767   0.497497 N.2        1 UNL1     -0.2557
     18 C         4.175089   6.31583   -1.74394 C.3        1 UNL1     0.0016
     19 C         5.465535   6.383605   -2.54503 C.3        1 UNL1     0.0026
     20 N         6.214729   5.153354   -2.330041 N.3        1 UNL1     -0.3018
     21 C         6.544742   4.862407   -0.933327 C.3        1 UNL1     0.0026
     22 C         5.233812   4.79423   -0.148019 C.3        1 UNL1     0.0016
     23 C         7.30491   4.985362   -3.270215 C.3        1 UNL1     0.0012
     24 C         6.762003   4.691098   -4.677488 C.3        1 UNL1     -0.0339
     25 C         6.752716   5.955416   -5.5524 C.3        1 UNL1     -0.0615
     26 C         7.562194   3.57194   -5.320885 C.3        1 UNL1     -0.0615
     27 C         1.77923   10.800537   2.289184 C.ar        1 UNL1     0.1347
     28 C         0.564133   10.357921   2.780793 C.ar        1 UNL1     0.0342
     29 C         0.370233   8.963079   2.691448 C.ar        1 UNL1     0.1435
     30 C         1.304742   8.1049   2.110551 C.ar        1 UNL1     0.0774
     31 O         -0.807599   8.392416   3.026205 O.3        1 UNL1     -0.4436
     32 C         -0.788278   7.112643   2.376066 C.3        1 UNL1     0.3143
     33 C         0.678658   6.800164   2.160034 C.2        1 UNL1     0.2504
     34 C         -0.578586   11.229364   3.222244 C.3        1 UNL1     -0.0327
     35 O         -1.285976   6.150689   3.314251 O.2        1 UNL1     -0.4528
     36 C         -2.955858   3.443853   1.242386 C.3        1 UNL1     0.0854
     37 C         -2.347286   2.550194   0.09411 C.3        1 UNL1     0.0236
     38 C         -2.498315   0.96918   0.316207 C.3        1 UNL1     0.1131
     39 C         -2.045642   0.322095   1.686841 C.3        1 UNL1     0.0200
     40 C         -0.611266   0.780296   2.404513 C.3        1 UNL1     0.0661
     41 C         0.900738   0.86213   1.639818 C.3        1 UNL1     0.0091
     42 C         2.321468   1.985994   1.9294 C.3        1 UNL1     0.0661
     43 C         3.933143   10.509653   1.046728 C.2        1 UNL1     0.2131
     44 O         4.06568   11.6798   0.737006 O.2        1 UNL1     -0.2851
     45 O         2.110781   12.14848   2.409858 O.3        1 UNL1     -0.5056
     46 O         1.213342   5.717541   2.071181 O.2        1 UNL1     -0.2836
     47 C         3.413982   2.483613   4.311962 C.3        1 UNL1     -0.0566
     48 O         3.327038   0.89617   1.94457 O.3        1 UNL1     -0.3909
     49 C         0.695411   0.787085   0.143254 C.3        1 UNL1     -0.0577
     50 O         -0.801002   1.916994   3.222829 O.3        1 UNL1     -0.3910
     51 O         -3.395363   2.755386   2.391421 O.3        1 UNL1     -0.3753
     52 C         -1.053372   3.184448   -0.512896 C.3        1 UNL1     -0.0564
     53 O         -2.239154   0.161349   -0.921764 O.3        1 UNL1     -0.4608
     54 C         -1.928004   -1.17294   -0.949855 C.2        1 UNL1     0.3042
     55 O         -0.855359   -1.683114   -1.270782 O.2        1 UNL1     -0.2512
     56 C         -3.042058   -2.060443   -0.472431 C.3        1 UNL1     0.0332
     57 C         -3.341447   0.20776   2.617428 C.3        1 UNL1     -0.0567
     58 C         -1.464066   7.31118   0.999322 C.3        1 UNL1     0.0210
     59 C         -4.431307   3.40966   3.122592 C.3        1 UNL1     0.0372
     60 C         -2.07555   4.547503   1.71374 C.2        1 UNL1     -0.0208
     61 C         -1.786187   4.954252   2.950497 C.2        1 UNL1     0.0882
     62 H         2.443084   3.860182   2.990321 H        1 UNL1     0.0365
     63 H         3.655581   5.4993   3.10595 H        1 UNL1     0.0576
     64 H         6.611963   4.726977   2.705825 H        1 UNL1     0.0615
     65 H         5.159432   7.469831   3.059042 H        1 UNL1     0.0622
     66 H         -3.82749   3.92957   0.781536 H        1 UNL1     0.0645
     67 H         -3.023434   2.71709   -0.762353 H        1 UNL1     0.0362
     68 H         -3.595734   0.885493   0.302402 H        1 UNL1     0.0741
     69 H         -1.90895   -0.741185   1.541379 H        1 UNL1     0.0359
     70 H         -0.479617   -0.055426   3.118165 H        1 UNL1     0.0600
     71 H         1.282811   -0.154482   1.857711 H        1 UNL1     0.0348
     72 H         1.706659   2.033587   2.839928 H        1 UNL1     0.0602
     73 H         -1.753101   5.118048   0.878423 H        1 UNL1     0.0628
     74 H         -2.029236   4.396771   3.855692 H        1 UNL1     0.1022
     75 H         9.084813   7.081382   1.983517 H        1 UNL1     0.0279
     76 H         8.782858   8.505497   1.07027 H        1 UNL1     0.0279
     77 H         9.184619   8.567307   2.833808 H        1 UNL1     0.0279
     78 H         6.81895   9.161633   0.245405 H        1 UNL1     0.1553
     79 H         6.335844   7.303134   -0.243282 H        1 UNL1     0.1484
     80 H         3.546748   5.477002   -2.066927 H        1 UNL1     0.0317
     81 H         3.586178   7.226291   -1.898526 H        1 UNL1     0.0317
     82 H         6.066076   7.264946   -2.275773 H        1 UNL1     0.0428
     83 H         5.193178   6.513338   -3.592905 H        1 UNL1     0.0428
     84 H         7.03665   3.895128   -0.791168 H        1 UNL1     0.0428
     85 H         7.259947   5.588375   -0.522512 H        1 UNL1     0.0428
     86 H         5.501966   4.450454   0.833766 H        1 UNL1     0.0317
     87 H         4.605277   3.984168   -0.537685 H        1 UNL1     0.0317
     88 H         7.874118   5.923516   -3.30432 H        1 UNL1     0.0429
     89 H         7.997981   4.200461   -2.941038 H        1 UNL1     0.0429
     90 H         5.735031   4.31593   -4.595093 H        1 UNL1     0.0308
     91 H         7.752464   6.393251   -5.629263 H        1 UNL1     0.0233
     92 H         6.382434   5.728705   -6.554948 H        1 UNL1     0.0233
     93 H         6.093739   6.735415   -5.152167 H        1 UNL1     0.0233
     94 H         7.308951   3.489104   -6.383355 H        1 UNL1     0.0233
     95 H         8.63193   3.786111   -5.245005 H        1 UNL1     0.0233
     96 H         7.359887   2.610098   -4.841405 H        1 UNL1     0.0233
     97 H         -1.443143   10.645692   3.52407 H        1 UNL1     0.0280
     98 H         -0.315839   11.848138   4.090195 H        1 UNL1     0.0280
     99 H         -0.880216   11.890409   2.393309 H        1 UNL1     0.0280
     100 H         1.466152   12.742415   2.067341 H        1 UNL1     0.2922
     101 H         2.736439   1.630091   4.321505 H        1 UNL1     0.0236
     102 H         3.247791   3.147221   5.159894 H        1 UNL1     0.0236
     103 H         4.412884   2.049941   4.486075 H        1 UNL1     0.0236
     104 H         3.462847   0.633096   2.87587 H        1 UNL1     0.2098
     105 H         0.27475   1.68715   -0.298038 H        1 UNL1     0.0234
     106 H         1.569998   0.463064   -0.420692 H        1 UNL1     0.0234
     107 H         0.0   0.0   -0.0 H        1 UNL1     0.0234
     108 H         -1.043778   2.659304   2.636481 H        1 UNL1     0.2098
     109 H         -0.270224   3.335784   0.243073 H        1 UNL1     0.0234
     110 H         -0.646149   2.611081   -1.352637 H        1 UNL1     0.0234
     111 H         -1.25081   4.177052   -0.93916 H        1 UNL1     0.0234
     112 H         -2.722376   -3.10657   -0.500141 H        1 UNL1     0.0342
     113 H         -3.388295   -1.783924   0.522306 H        1 UNL1     0.0342
     114 H         -3.889462   -1.948848   -1.162806 H        1 UNL1     0.0342
     115 H         -4.130011   -0.39574   2.147171 H        1 UNL1     0.0234
     116 H         -3.14424   -0.219722   3.602526 H        1 UNL1     0.0234
     117 H         -3.865587   1.168182   2.761678 H        1 UNL1     0.0234
     118 H         -2.565084   7.265027   1.067407 H        1 UNL1     0.0309
     119 H         -1.174412   8.246204   0.509391 H        1 UNL1     0.0309
     120 H         -1.220954   6.510438   0.292346 H        1 UNL1     0.0309
     121 H         -4.024186   4.344905   3.505901 H        1 UNL1     0.0524
     122 H         -5.297453   3.660135   2.487699 H        1 UNL1     0.0524
     123 H         -4.765818   2.782017   3.943726 H        1 UNL1     0.0524
@<TRIPOS>BOND
     1     1     2    1
     2     1    42    1
     3     2     3    2
     4     3     4    1
     5     4     5    2
     6     5     7    1
     7     6    75    1
     8     6    76    1
     9     6    77    1
    10     7     9   am
    11     9    10    1
    12    10    11    2
    13    10    43    1
    14    11    14    1
    15    11    15    1
    16    12    13   ar
    17    12    27   ar
    18    12    43    1
    19    13    14    1
    20    13    30   ar
    21    14    17    2
    22    15    16    1
    23    16    17    1
    24    16    18    1
    25    16    22    1
    26    18    19    1
    27    19    20    1
    28    20    21    1
    29    21    22    1
    30    23    24    1
    31    23    88    1
    32    23    89    1
    33    24    25    1
    34    24    26    1
    35    24    90    1
    36    25    91    1
    37    25    92    1
    38    25    93    1
    39    26    94    1
    40    26    95    1
    41    26    96    1
    42    27    28   ar
    43    28    29   ar
    44    29    30   ar
    45    29    31    1
    46    30    33    1
    47    31    32    1
    48    32    33    1
    49    32    35    1
    50    34    97    1
    51    34    98    1
    52    34    99    1
    53    35    61    1
    54    36    37    1
    55    36    60    1
    56    37    38    1
    57    38    39    1
    58    39    40    1
    59    40    41    1
    60    41    42    1
    61    45   100    1
    62    47   101    1
    63    47   102    1
    64    47   103    1
    65    48   104    1
    66    49   105    1
    67    49   106    1
    68    49   107    1
    69    50   108    1
    70    51    59    1
    71    52   109    1
    72    52   110    1
    73    52   111    1
    74    53    54    1
    75    54    55    2
    76    54    56    1
    77    56   112    1
    78    56   113    1
    79    56   114    1
    80    57   115    1
    81    57   116    1
    82    57   117    1
    83    58   118    1
    84    58   119    1
    85    58   120    1
    86    59   121    1
    87    59   122    1
    88    59   123    1
    89    60    61    2
    90     1    47    1
    91     1    62    1
    92     2    63    1
    93     3    64    1
    94     4    65    1
    95     5     6    1
    96     7     8    2
    97     9    78    1
    98    15    79    1
    99    18    80    1
   100    18    81    1
   101    19    82    1
   102    19    83    1
   103    20    23    1
   104    21    84    1
   105    21    85    1
   106    22    86    1
   107    22    87    1
   108    27    45    1
   109    28    34    1
   110    32    58    1
   111    33    46    2
   112    36    51    1
   113    36    66    1
   114    37    52    1
   115    37    67    1
   116    38    53    1
   117    38    68    1
   118    42    48    1
   119    42    72    1
   120    43    44    2
   121    60    73    1
   122    61    74    1
   123    39    69    1
   124    39    57    1
   125    40    70    1
   126    40    50    1
   127    41    71    1
   128    41    49    1
