@<TRIPOS>MOLECULE
*****
 123 128 0 0 0
SMALL
GASTEIGER

@<TRIPOS>ATOM
     1 C         5.163097   1.767566   0.466267 C.3        1 UNL1     0.0009
     2 C         6.592618   2.579129   -0.390982 C.2        1 UNL1     -0.0787
     3 C         7.871549   2.485791   -1.063045 C.2        1 UNL1     -0.0649
     4 C         8.740738   3.724297   -1.822631 C.2        1 UNL1     -0.0542
     5 C         9.755047   4.020895   -2.76618 C.2        1 UNL1     0.0115
     6 C         10.881244   3.399789   -3.637518 C.3        1 UNL1     -0.0348
     7 C         9.84197   5.504635   -3.372769 C.2        1 UNL1     0.2441
     8 O         10.664695   6.329201   -2.998951 O.2        1 UNL1     -0.2702
     9 N         9.085234   5.709134   -4.53968 N.am        1 UNL1     -0.2772
     10 C         7.802676   6.091045   -4.219507 C.2        1 UNL1     0.1049
     11 C         6.961898   5.116475   -3.923656 C.2        1 UNL1     0.0801
     12 C         6.505387   7.692601   -2.801975 C.ar        1 UNL1     0.0753
     13 C         5.752675   6.56181   -2.351038 C.ar        1 UNL1     0.0305
     14 C         5.871197   5.256699   -2.997327 C.2        1 UNL1     0.0924
     15 N         7.088591   3.787993   -4.083687 N.pl3        1 UNL1     -0.3170
     16 C         5.822496   3.184107   -3.763409 C.3        1 UNL1     0.1275
     17 N         5.187446   4.136774   -2.780118 N.2        1 UNL1     -0.2557
     18 C         4.963218   3.240357   -5.022845 C.3        1 UNL1     0.0016
     19 C         5.715022   2.559298   -6.155337 C.3        1 UNL1     0.0026
     20 N         5.992101   1.182103   -5.771166 N.3        1 UNL1     -0.3018
     21 C         6.76214   1.024208   -4.535659 C.3        1 UNL1     0.0026
     22 C         5.986411   1.711609   -3.410662 C.3        1 UNL1     0.0016
     23 C         6.434125   0.36446   -6.883245 C.3        1 UNL1     0.0012
     24 C         5.274772   0.110991   -7.859672 C.3        1 UNL1     -0.0339
     25 C         5.360475   1.034224   -9.086193 C.3        1 UNL1     -0.0615
     26 C         5.244205   -1.352964   -8.26301 C.3        1 UNL1     -0.0615
     27 C         6.298756   8.95941   -2.261035 C.ar        1 UNL1     0.1347
     28 C         5.343464   9.225221   -1.296249 C.ar        1 UNL1     0.0342
     29 C         4.648334   8.088104   -0.832651 C.ar        1 UNL1     0.1435
     30 C         4.869969   6.807007   -1.339494 C.ar        1 UNL1     0.0774
     31 O         3.611157   8.197661   0.025991 O.3        1 UNL1     -0.4436
     32 C         2.8933   6.962243   -0.112919 C.3        1 UNL1     0.3143
     33 C         3.907584   5.972975   -0.650311 C.2        1 UNL1     0.2504
     34 C         4.893812   10.589579   -0.853031 C.3        1 UNL1     -0.0327
     35 O         2.540762   6.52392   1.204974 O.2        1 UNL1     -0.4528
     36 C         -0.697116   4.579976   0.823765 C.3        1 UNL1     0.0854
     37 C         -1.002236   3.318491   -0.072382 C.3        1 UNL1     0.0236
     38 C         -1.594279   2.055077   0.718197 C.3        1 UNL1     0.1131
     39 C         -0.860168   1.526502   2.015871 C.3        1 UNL1     0.0200
     40 C         0.801729   1.387024   2.048801 C.3        1 UNL1     0.0661
     41 C         1.75812   0.621976   0.875077 C.3        1 UNL1     0.0091
     42 C         3.461564   0.990906   0.302738 C.3        1 UNL1     0.0661
     43 C         7.450635   7.488631   -3.927658 C.2        1 UNL1     0.2131
     44 O         7.843679   8.388329   -4.647934 O.2        1 UNL1     -0.2851
     45 O         7.104958   9.997586   -2.723276 O.3        1 UNL1     -0.5056
     46 O         3.928619   4.769478   -0.519908 O.2        1 UNL1     -0.2836
     47 C         5.568127   1.339217   1.90239 C.3        1 UNL1     -0.0566
     48 O         3.915682   -0.418568   0.381964 O.3        1 UNL1     -0.3909
     49 C         0.918673   0.386616   -0.360815 C.3        1 UNL1     -0.0577
     50 O         1.399405   2.606985   2.438933 O.3        1 UNL1     -0.3910
     51 O         -0.813634   4.389537   2.215738 O.3        1 UNL1     -0.3753
     52 C         0.037092   3.162098   -1.23009 C.3        1 UNL1     -0.0564
     53 O         -2.197519   1.014098   -0.178905 O.3        1 UNL1     -0.4608
     54 C         -2.394291   -0.3016   0.149956 C.2        1 UNL1     0.3042
     55 O         -1.810011   -1.281854   -0.309996 O.2        1 UNL1     -0.2512
     56 C         -3.409542   -0.504058   1.238529 C.3        1 UNL1     0.0332
     57 C         -1.577394   2.192575   3.280824 C.3        1 UNL1     -0.0567
     58 C         1.811871   7.203642   -1.1917 C.3        1 UNL1     0.0210
     59 C         -1.127476   5.567226   2.95764 C.3        1 UNL1     0.0372
     60 C         0.628416   5.213965   0.586735 C.2        1 UNL1     -0.0208
     61 C         1.544042   5.65234   1.451722 C.2        1 UNL1     0.0882
     62 H         4.684022   2.749974   0.55612 H        1 UNL1     0.0365
     63 H         6.323046   3.631925   -0.284113 H        1 UNL1     0.0576
     64 H         8.331634   1.520669   -1.286582 H        1 UNL1     0.0615
     65 H         8.252035   4.637831   -1.473192 H        1 UNL1     0.0622
     66 H         -1.446013   5.323846   0.517405 H        1 UNL1     0.0645
     67 H         -1.871921   3.624825   -0.679315 H        1 UNL1     0.0362
     68 H         -2.541188   2.488413   1.074716 H        1 UNL1     0.0741
     69 H         -1.187024   0.514157   2.212671 H        1 UNL1     0.0359
     70 H         0.920273   0.726915   2.929292 H        1 UNL1     0.0600
     71 H         1.807543   -0.399115   1.301558 H        1 UNL1     0.0348
     72 H         3.358747   1.478508   1.283038 H        1 UNL1     0.0602
     73 H         0.740462   5.411868   -0.450342 H        1 UNL1     0.0628
     74 H         1.532558   5.441382   2.521583 H        1 UNL1     0.1022
     75 H         10.911812   2.291192   -3.506698 H        1 UNL1     0.0279
     76 H         10.775332   3.50571   -4.714845 H        1 UNL1     0.0279
     77 H         11.88776   3.685901   -3.298747 H        1 UNL1     0.0279
     78 H         9.023815   4.839078   -5.064377 H        1 UNL1     0.1553
     79 H         7.752357   3.362568   -4.704462 H        1 UNL1     0.1484
     80 H         4.004708   2.745873   -4.82407 H        1 UNL1     0.0317
     81 H         4.731486   4.276333   -5.292482 H        1 UNL1     0.0317
     82 H         6.642499   3.09405   -6.407802 H        1 UNL1     0.0428
     83 H         5.085267   2.612348   -7.043957 H        1 UNL1     0.0428
     84 H         6.887797   -0.018363   -4.227331 H        1 UNL1     0.0428
     85 H         7.790355   1.396024   -4.644488 H        1 UNL1     0.0428
     86 H         6.508233   1.46294   -2.505204 H        1 UNL1     0.0317
     87 H         5.009348   1.230371   -3.280838 H        1 UNL1     0.0317
     88 H         7.225585   0.909273   -7.414342 H        1 UNL1     0.0429
     89 H         6.871903   -0.579801   -6.534681 H        1 UNL1     0.0429
     90 H         4.324704   0.300053   -7.346018 H        1 UNL1     0.0308
     91 H         6.313679   0.912962   -9.609451 H        1 UNL1     0.0233
     92 H         4.541811   0.831089   -9.780553 H        1 UNL1     0.0233
     93 H         5.277657   2.094321   -8.817547 H        1 UNL1     0.0233
     94 H         4.563805   -1.497478   -9.109182 H        1 UNL1     0.0233
     95 H         6.241812   -1.675846   -8.57364 H        1 UNL1     0.0233
     96 H         4.908905   -1.987339   -7.437717 H        1 UNL1     0.0233
     97 H         4.098004   10.536858   -0.11605 H        1 UNL1     0.0280
     98 H         5.704418   11.158996   -0.379809 H        1 UNL1     0.0280
     99 H         4.522561   11.156336   -1.722545 H        1 UNL1     0.0280
     100 H         6.633614   10.747076   -3.042214 H        1 UNL1     0.2922
     101 H         4.706251   0.913725   2.415989 H        1 UNL1     0.0236
     102 H         6.029909   2.142744   2.475176 H        1 UNL1     0.0236
     103 H         6.318143   0.530735   1.897385 H        1 UNL1     0.0236
     104 H         4.334629   -0.544799   1.25576 H        1 UNL1     0.2098
     105 H         0.699907   1.284784   -0.932872 H        1 UNL1     0.0234
     106 H         1.287686   -0.399914   -1.018939 H        1 UNL1     0.0234
     107 H         0.0   -0.0   0.0 H        1 UNL1     0.0234
     108 H         1.210019   3.260043   1.737922 H        1 UNL1     0.2098
     109 H         1.065606   3.064688   -0.855415 H        1 UNL1     0.0234
     110 H         -0.188959   2.326705   -1.901478 H        1 UNL1     0.0234
     111 H         0.04302   4.039859   -1.889975 H        1 UNL1     0.0234
     112 H         -3.503125   -1.57017   1.466548 H        1 UNL1     0.0342
     113 H         -3.16946   0.067379   2.133886 H        1 UNL1     0.0342
     114 H         -4.382767   -0.151824   0.869842 H        1 UNL1     0.0342
     115 H         -2.648504   1.950544   3.317341 H        1 UNL1     0.0234
     116 H         -1.142813   1.904683   4.24015 H        1 UNL1     0.0234
     117 H         -1.609334   3.294904   3.238507 H        1 UNL1     0.0234
     118 H         0.909231   7.682927   -0.77393 H        1 UNL1     0.0309
     119 H         2.173603   7.797034   -2.037418 H        1 UNL1     0.0309
     120 H         1.427912   6.270484   -1.618196 H        1 UNL1     0.0309
     121 H         -0.292498   6.258615   2.847419 H        1 UNL1     0.0524
     122 H         -2.030128   6.073441   2.576846 H        1 UNL1     0.0524
     123 H         -1.275919   5.32282   4.00565 H        1 UNL1     0.0524
@<TRIPOS>BOND
     1     1     2    1
     2     1    42    1
     3     2     3    2
     4     3     4    1
     5     4     5    2
     6     5     7    1
     7     6    75    1
     8     6    76    1
     9     6    77    1
    10     7     9   am
    11     9    10    1
    12    10    11    2
    13    10    43    1
    14    11    14    1
    15    11    15    1
    16    12    13   ar
    17    12    27   ar
    18    12    43    1
    19    13    14    1
    20    13    30   ar
    21    14    17    2
    22    15    16    1
    23    16    17    1
    24    16    18    1
    25    16    22    1
    26    18    19    1
    27    19    20    1
    28    20    21    1
    29    21    22    1
    30    23    24    1
    31    23    88    1
    32    23    89    1
    33    24    25    1
    34    24    26    1
    35    24    90    1
    36    25    91    1
    37    25    92    1
    38    25    93    1
    39    26    94    1
    40    26    95    1
    41    26    96    1
    42    27    28   ar
    43    28    29   ar
    44    29    30   ar
    45    29    31    1
    46    30    33    1
    47    31    32    1
    48    32    33    1
    49    32    35    1
    50    34    97    1
    51    34    98    1
    52    34    99    1
    53    35    61    1
    54    36    37    1
    55    36    60    1
    56    37    38    1
    57    38    39    1
    58    39    40    1
    59    40    41    1
    60    41    42    1
    61    45   100    1
    62    47   101    1
    63    47   102    1
    64    47   103    1
    65    48   104    1
    66    49   105    1
    67    49   106    1
    68    49   107    1
    69    50   108    1
    70    51    59    1
    71    52   109    1
    72    52   110    1
    73    52   111    1
    74    53    54    1
    75    54    55    2
    76    54    56    1
    77    56   112    1
    78    56   113    1
    79    56   114    1
    80    57   115    1
    81    57   116    1
    82    57   117    1
    83    58   118    1
    84    58   119    1
    85    58   120    1
    86    59   121    1
    87    59   122    1
    88    59   123    1
    89    60    61    2
    90     1    47    1
    91     1    62    1
    92     2    63    1
    93     3    64    1
    94     4    65    1
    95     5     6    1
    96     7     8    2
    97     9    78    1
    98    15    79    1
    99    18    80    1
   100    18    81    1
   101    19    82    1
   102    19    83    1
   103    20    23    1
   104    21    84    1
   105    21    85    1
   106    22    86    1
   107    22    87    1
   108    27    45    1
   109    28    34    1
   110    32    58    1
   111    33    46    2
   112    36    51    1
   113    36    66    1
   114    37    52    1
   115    37    67    1
   116    38    53    1
   117    38    68    1
   118    42    48    1
   119    42    72    1
   120    43    44    2
   121    60    73    1
   122    61    74    1
   123    39    69    1
   124    39    57    1
   125    40    70    1
   126    40    50    1
   127    41    71    1
   128    41    49    1
