@<TRIPOS>MOLECULE
*****
 123 128 0 0 0
SMALL
GASTEIGER

@<TRIPOS>ATOM
     1 C         0.062835   3.722849   -3.750154 C.3        1 UNL1     0.0009
     2 C         0.982109   4.193801   -5.289692 C.2        1 UNL1     -0.0787
     3 C         1.856762   5.100981   -6.002471 C.2        1 UNL1     -0.0649
     4 C         2.515922   4.910069   -7.550185 C.2        1 UNL1     -0.0542
     5 C         3.543003   5.323953   -8.43386 C.2        1 UNL1     0.0115
     6 C         4.679619   6.362478   -8.640968 C.3        1 UNL1     -0.0348
     7 C         3.884659   4.411432   -9.70962 C.2        1 UNL1     0.2441
     8 O         3.508573   4.682677   -10.841658 O.2        1 UNL1     -0.2702
     9 N         4.860264   3.42485   -9.483781 N.am        1 UNL1     -0.2772
     10 C         4.275926   2.269338   -9.018312 C.2        1 UNL1     0.1049
     11 C         4.025189   2.225074   -7.722398 C.2        1 UNL1     0.0801
     12 C         2.408645   0.668254   -9.473423 C.ar        1 UNL1     0.0753
     13 C         2.048971   0.818243   -8.096199 C.ar        1 UNL1     0.0305
     14 C         2.925594   1.499578   -7.14627 C.2        1 UNL1     0.0924
     15 N         4.435014   3.039641   -6.73495 N.pl3        1 UNL1     -0.3170
     16 C         4.026895   2.455008   -5.485191 C.3        1 UNL1     0.1275
     17 N         2.802075   1.643369   -5.829837 N.2        1 UNL1     -0.2557
     18 C         5.101994   1.449628   -5.08385 C.3        1 UNL1     0.0016
     19 C         6.442624   2.165052   -5.034154 C.3        1 UNL1     0.0026
     20 N         6.356697   3.253175   -4.069979 N.3        1 UNL1     -0.3018
     21 C         5.308403   4.239921   -4.337895 C.3        1 UNL1     0.0026
     22 C         3.970089   3.50024   -4.378931 C.3        1 UNL1     0.0016
     23 C         7.651781   3.805702   -3.726299 C.3        1 UNL1     0.0012
     24 C         8.261277   4.539448   -4.931242 C.3        1 UNL1     -0.0339
     25 C         9.484987   3.79124   -5.485116 C.3        1 UNL1     -0.0615
     26 C         7.204249   4.751356   -6.001086 C.3        1 UNL1     -0.0615
     27 C         1.626918   -0.085677   -10.345552 C.ar        1 UNL1     0.1347
     28 C         0.489612   -0.766189   -9.948703 C.ar        1 UNL1     0.0342
     29 C         0.128011   -0.564131   -8.599785 C.ar        1 UNL1     0.1435
     30 C         0.881552   0.217711   -7.72336 C.ar        1 UNL1     0.0774
     31 O         -0.891844   -1.245758   -8.033846 O.3        1 UNL1     -0.4436
     32 C         -0.654653   -1.146737   -6.621469 C.3        1 UNL1     0.3143
     33 C         0.204527   0.089608   -6.449785 C.2        1 UNL1     0.2504
     34 C         -0.253453   -1.790303   -10.76058 C.3        1 UNL1     -0.0327
     35 O         -1.913958   -0.869725   -5.996437 O.2        1 UNL1     -0.4528
     36 C         -1.721619   -2.419011   -2.536551 C.3        1 UNL1     0.0854
     37 C         -0.678113   -2.155696   -1.383606 C.3        1 UNL1     0.0236
     38 C         -1.318444   -1.724304   0.021963 C.3        1 UNL1     0.1131
     39 C         -2.367581   -0.541692   0.07684 C.3        1 UNL1     0.0200
     40 C         -2.107908   0.859042   -0.790889 C.3        1 UNL1     0.0661
     41 C         -0.67956   1.774139   -0.796384 C.3        1 UNL1     0.0091
     42 C         0.085027   2.778696   -2.127427 C.3        1 UNL1     0.0661
     43 C         3.689697   1.268259   -9.921932 C.2        1 UNL1     0.2131
     44 O         4.293851   0.901745   -10.913599 O.2        1 UNL1     -0.2851
     45 O         2.022483   -0.1436   -11.680323 O.3        1 UNL1     -0.5056
     46 O         0.293297   0.81772   -5.486547 O.2        1 UNL1     -0.2836
     47 C         -1.1913   4.620858   -3.574922 C.3        1 UNL1     -0.0566
     48 O         0.329386   3.953867   -1.256579 O.3        1 UNL1     -0.3909
     49 C         0.427237   0.954953   -0.170742 C.3        1 UNL1     -0.0577
     50 O         -2.605664   0.732399   -2.107674 O.3        1 UNL1     -0.3910
     51 O         -3.058609   -2.078344   -2.247007 O.3        1 UNL1     -0.3753
     52 C         0.640777   -1.5157   -1.927556 C.3        1 UNL1     -0.0564
     53 O         -0.360771   -1.821723   1.173352 O.3        1 UNL1     -0.4608
     54 C         0.042266   -0.776713   1.962938 C.2        1 UNL1     0.3042
     55 O         1.179543   -0.320857   2.075338 O.2        1 UNL1     -0.2512
     56 C         -1.082842   -0.118065   2.70928 C.3        1 UNL1     0.0332
     57 C         -3.828653   -1.190363   0.025196 C.3        1 UNL1     -0.0567
     58 C         0.176683   -2.390365   -6.229296 C.3        1 UNL1     0.0210
     59 C         -3.689011   -2.90363   -1.268559 C.3        1 UNL1     0.0372
     60 C         -1.390098   -1.784975   -3.841639 C.2        1 UNL1     -0.0208
     61 C         -2.160215   -1.107043   -4.693737 C.2        1 UNL1     0.0882
     62 H         -0.274496   2.80909   -4.254102 H        1 UNL1     0.0365
     63 H         0.64952   3.409846   -5.973262 H        1 UNL1     0.0576
     64 H         2.317823   5.958726   -5.507694 H        1 UNL1     0.0615
     65 H         1.93708   4.088287   -7.980416 H        1 UNL1     0.0622
     66 H         -1.675504   -3.503664   -2.708153 H        1 UNL1     0.0645
     67 H         -0.282425   -3.158455   -1.145986 H        1 UNL1     0.0362
     68 H         -1.893198   -2.63502   0.249506 H        1 UNL1     0.0741
     69 H         -2.432878   -0.181333   1.094821 H        1 UNL1     0.0359
     70 H         -2.827649   1.53192   -0.286639 H        1 UNL1     0.0600
     71 H         -0.9059   2.490617   0.017487 H        1 UNL1     0.0348
     72 H         -0.969421   2.650382   -2.412016 H        1 UNL1     0.0602
     73 H         -0.3998   -2.050532   -4.117386 H        1 UNL1     0.0628
     74 H         -3.163891   -0.746926   -4.46529 H        1 UNL1     0.1022
     75 H         4.753317   6.653731   -9.716503 H        1 UNL1     0.0279
     76 H         4.555159   7.323066   -8.146145 H        1 UNL1     0.0279
     77 H         5.679278   5.940287   -8.461702 H        1 UNL1     0.0279
     78 H         5.513238   3.746106   -8.772096 H        1 UNL1     0.1553
     79 H         5.219503   3.660284   -6.814398 H        1 UNL1     0.1484
     80 H         4.842032   1.017934   -4.109774 H        1 UNL1     0.0317
     81 H         5.144095   0.617195   -5.794437 H        1 UNL1     0.0317
     82 H         6.742647   2.536885   -6.024931 H        1 UNL1     0.0428
     83 H         7.195055   1.429564   -4.747876 H        1 UNL1     0.0428
     84 H         5.212842   5.001244   -3.557468 H        1 UNL1     0.0428
     85 H         5.513828   4.817152   -5.249993 H        1 UNL1     0.0428
     86 H         3.218424   4.265009   -4.443079 H        1 UNL1     0.0317
     87 H         3.771772   3.030279   -3.407899 H        1 UNL1     0.0317
     88 H         7.509599   4.528539   -2.912305 H        1 UNL1     0.0429
     89 H         8.33014   3.028492   -3.351403 H        1 UNL1     0.0429
     90 H         8.576818   5.54208   -4.619192 H        1 UNL1     0.0308
     91 H         10.035583   3.283841   -4.687312 H        1 UNL1     0.0233
     92 H         9.181868   3.056714   -6.234916 H        1 UNL1     0.0233
     93 H         10.194384   4.46258   -5.984008 H        1 UNL1     0.0233
     94 H         7.518777   5.541386   -6.691565 H        1 UNL1     0.0233
     95 H         7.068235   3.832972   -6.579042 H        1 UNL1     0.0233
     96 H         6.244308   5.037797   -5.562414 H        1 UNL1     0.0233
     97 H         -0.385411   -2.722151   -10.218845 H        1 UNL1     0.0280
     98 H         -1.263211   -1.452807   -11.028426 H        1 UNL1     0.0280
     99 H         0.306214   -2.004702   -11.68573 H        1 UNL1     0.0280
     100 H         1.878417   -0.975705   -12.095615 H        1 UNL1     0.2922
     101 H         -1.23335   5.354722   -4.379491 H        1 UNL1     0.0236
     102 H         -1.250443   5.087513   -2.592212 H        1 UNL1     0.0236
     103 H         -2.128182   4.046975   -3.670336 H        1 UNL1     0.0236
     104 H         1.15409   3.786441   -0.759787 H        1 UNL1     0.2098
     105 H         1.299891   0.82046   -0.804932 H        1 UNL1     0.0234
     106 H         0.729853   1.282602   0.823741 H        1 UNL1     0.0234
     107 H         0.0   0.0   0.0 H        1 UNL1     0.0234
     108 H         -1.950539   0.217649   -2.617196 H        1 UNL1     0.2098
     109 H         0.770588   -0.478523   -1.588255 H        1 UNL1     0.0234
     110 H         1.535389   -2.097022   -1.679607 H        1 UNL1     0.0234
     111 H         0.647069   -1.472463   -3.024842 H        1 UNL1     0.0234
     112 H         -0.729035   0.230133   3.684434 H        1 UNL1     0.0342
     113 H         -1.528966   0.697162   2.141634 H        1 UNL1     0.0342
     114 H         -1.865231   -0.869503   2.883562 H        1 UNL1     0.0342
     115 H         -4.604347   -0.435231   -0.162587 H        1 UNL1     0.0234
     116 H         -3.94121   -1.97139   -0.729375 H        1 UNL1     0.0234
     117 H         -4.161781   -1.601814   0.993532 H        1 UNL1     0.0234
     118 H         1.247498   -2.151247   -6.106075 H        1 UNL1     0.0309
     119 H         -0.18736   -2.881656   -5.321382 H        1 UNL1     0.0309
     120 H         0.1777   -3.158655   -7.010216 H        1 UNL1     0.0309
     121 H         -3.257374   -3.900772   -1.350736 H        1 UNL1     0.0524
     122 H         -3.507718   -2.547075   -0.240922 H        1 UNL1     0.0524
     123 H         -4.760314   -2.943289   -1.444151 H        1 UNL1     0.0524
@<TRIPOS>BOND
     1     1     2    1
     2     1    42    1
     3     2     3    2
     4     3     4    1
     5     4     5    2
     6     5     7    1
     7     6    75    1
     8     6    76    1
     9     6    77    1
    10     7     9   am
    11     9    10    1
    12    10    11    2
    13    10    43    1
    14    11    14    1
    15    11    15    1
    16    12    13   ar
    17    12    27   ar
    18    12    43    1
    19    13    14    1
    20    13    30   ar
    21    14    17    2
    22    15    16    1
    23    16    17    1
    24    16    18    1
    25    16    22    1
    26    18    19    1
    27    19    20    1
    28    20    21    1
    29    21    22    1
    30    23    24    1
    31    23    88    1
    32    23    89    1
    33    24    25    1
    34    24    26    1
    35    24    90    1
    36    25    91    1
    37    25    92    1
    38    25    93    1
    39    26    94    1
    40    26    95    1
    41    26    96    1
    42    27    28   ar
    43    28    29   ar
    44    29    30   ar
    45    29    31    1
    46    30    33    1
    47    31    32    1
    48    32    33    1
    49    32    35    1
    50    34    97    1
    51    34    98    1
    52    34    99    1
    53    35    61    1
    54    36    37    1
    55    36    60    1
    56    37    38    1
    57    38    39    1
    58    39    40    1
    59    40    41    1
    60    41    42    1
    61    45   100    1
    62    47   101    1
    63    47   102    1
    64    47   103    1
    65    48   104    1
    66    49   105    1
    67    49   106    1
    68    49   107    1
    69    50   108    1
    70    51    59    1
    71    52   109    1
    72    52   110    1
    73    52   111    1
    74    53    54    1
    75    54    55    2
    76    54    56    1
    77    56   112    1
    78    56   113    1
    79    56   114    1
    80    57   115    1
    81    57   116    1
    82    57   117    1
    83    58   118    1
    84    58   119    1
    85    58   120    1
    86    59   121    1
    87    59   122    1
    88    59   123    1
    89    60    61    2
    90     1    47    1
    91     1    62    1
    92     2    63    1
    93     3    64    1
    94     4    65    1
    95     5     6    1
    96     7     8    2
    97     9    78    1
    98    15    79    1
    99    18    80    1
   100    18    81    1
   101    19    82    1
   102    19    83    1
   103    20    23    1
   104    21    84    1
   105    21    85    1
   106    22    86    1
   107    22    87    1
   108    27    45    1
   109    28    34    1
   110    32    58    1
   111    33    46    2
   112    36    51    1
   113    36    66    1
   114    37    52    1
   115    37    67    1
   116    38    53    1
   117    38    68    1
   118    42    48    1
   119    42    72    1
   120    43    44    2
   121    60    73    1
   122    61    74    1
   123    39    69    1
   124    39    57    1
   125    40    70    1
   126    40    50    1
   127    41    71    1
   128    41    49    1
