@<TRIPOS>MOLECULE
*****
 123 128 0 0 0
SMALL
GASTEIGER

@<TRIPOS>ATOM
     1 C         5.141995   1.818404   0.514827 C.3        1 UNL1     0.0009
     2 C         6.530914   2.741945   -0.294502 C.2        1 UNL1     -0.0787
     3 C         7.797165   2.743952   -0.996392 C.2        1 UNL1     -0.0649
     4 C         8.61691   4.068279   -1.660119 C.2        1 UNL1     -0.0542
     5 C         9.602589   4.474922   -2.59294 C.2        1 UNL1     0.0115
     6 C         10.725843   3.964579   -3.53696 C.3        1 UNL1     -0.0348
     7 C         9.63733   6.007997   -3.067768 C.2        1 UNL1     0.2441
     8 O         10.445844   6.819442   -2.638364 O.2        1 UNL1     -0.2702
     9 N         8.850629   6.292653   -4.19747 N.am        1 UNL1     -0.2772
     10 C         7.565601   6.608749   -3.820498 C.2        1 UNL1     0.1049
     11 C         6.757352   5.588703   -3.595861 C.2        1 UNL1     0.0801
     12 C         6.257203   8.042658   -2.242736 C.ar        1 UNL1     0.0753
     13 C         5.544412   6.855934   -1.879108 C.ar        1 UNL1     0.0305
     14 C         5.683436   5.616384   -2.640187 C.2        1 UNL1     0.0924
     15 N         6.91558   4.283469   -3.874886 N.pl3        1 UNL1     -0.3170
     16 C         5.673007   3.618413   -3.585117 C.3        1 UNL1     0.1275
     17 N         5.034271   4.462919   -2.509687 N.2        1 UNL1     -0.2557
     18 C         4.78575   3.760676   -4.818096 C.3        1 UNL1     0.0016
     19 C         5.530812   3.202995   -6.020372 C.3        1 UNL1     0.0026
     20 N         5.852286   1.805765   -5.764576 N.3        1 UNL1     -0.3018
     21 C         6.652523   1.561876   -4.5627 C.3        1 UNL1     0.0026
     22 C         5.883222   2.125855   -3.366874 C.3        1 UNL1     0.0016
     23 C         6.291786   1.101568   -6.95268 C.3        1 UNL1     0.0012
     24 C         5.118861   0.902161   -7.925429 C.3        1 UNL1     -0.0339
     25 C         5.424542   1.505628   -9.30617 C.3        1 UNL1     -0.0615
     26 C         4.769673   -0.572616   -8.024819 C.3        1 UNL1     -0.0615
     27 C         6.028873   9.250826   -1.588279 C.ar        1 UNL1     0.1347
     28 C         5.087798   9.404002   -0.585799 C.ar        1 UNL1     0.0342
     29 C         4.432996   8.21149   -0.211216 C.ar        1 UNL1     0.1435
     30 C         4.677428   6.986527   -0.833261 C.ar        1 UNL1     0.0774
     31 O         3.41193   8.216078   0.673323 O.3        1 UNL1     -0.4436
     32 C         2.724093   6.97788   0.439615 C.3        1 UNL1     0.3143
     33 C         3.752365   6.068504   -0.202182 C.2        1 UNL1     0.2504
     34 C         4.611922   10.71103   -0.015433 C.3        1 UNL1     -0.0327
     35 O         2.411563   6.415921   1.720153 O.2        1 UNL1     -0.4528
     36 C         -0.781345   4.4225   1.230559 C.3        1 UNL1     0.0854
     37 C         -1.072224   3.236374   0.232553 C.3        1 UNL1     0.0236
     38 C         -1.613662   1.89233   0.919674 C.3        1 UNL1     0.1131
     39 C         -0.838223   1.272872   2.151436 C.3        1 UNL1     0.0200
     40 C         0.827097   1.177894   2.140302 C.3        1 UNL1     0.0661
     41 C         1.777959   0.545958   0.885659 C.3        1 UNL1     0.0091
     42 C         3.458423   1.011475   0.315803 C.3        1 UNL1     0.0661
     43 C         7.18316   7.964888   -3.399808 C.2        1 UNL1     0.2131
     44 O         7.536811   8.934994   -4.045224 O.2        1 UNL1     -0.2851
     45 O         6.797323   10.347825   -1.972355 O.3        1 UNL1     -0.5056
     46 O         3.807923   4.859279   -0.178919 O.2        1 UNL1     -0.2836
     47 C         5.588865   1.277338   1.899579 C.3        1 UNL1     -0.0566
     48 O         3.95115   -0.386169   0.261681 O.3        1 UNL1     -0.3909
     49 C         0.918718   0.396344   -0.349984 C.3        1 UNL1     -0.0577
     50 O         1.400614   2.375285   2.625128 O.3        1 UNL1     -0.3910
     51 O         -0.862942   4.107521   2.602259 O.3        1 UNL1     -0.3753
     52 C         -0.054183   3.211436   -0.954005 C.3        1 UNL1     -0.0564
     53 O         -2.208324   0.917462   -0.054151 O.3        1 UNL1     -0.4608
     54 C         -2.363236   -0.427023   0.161003 C.2        1 UNL1     0.3042
     55 O         -1.669533   -1.339701   -0.285801 O.2        1 UNL1     -0.2512
     56 C         -3.488065   -0.76024   1.099321 C.3        1 UNL1     0.0332
     57 C         -1.545493   1.804988   3.483651 C.3        1 UNL1     -0.0567
     58 C         1.613803   7.282407   -0.592882 C.3        1 UNL1     0.0210
     59 C         -1.191764   5.206305   3.451032 C.3        1 UNL1     0.0372
     60 C         0.521621   5.111904   1.025224 C.2        1 UNL1     -0.0208
     61 C         1.443693   5.498342   1.907943 C.2        1 UNL1     0.0882
     62 H         4.639212   2.775266   0.700125 H        1 UNL1     0.0365
     63 H         6.236022   3.773303   -0.090032 H        1 UNL1     0.0576
     64 H         8.277648   1.81549   -1.31294 H        1 UNL1     0.0615
     65 H         8.111885   4.933525   -1.22219 H        1 UNL1     0.0622
     66 H         -1.555995   5.168987   1.005344 H        1 UNL1     0.0645
     67 H         -1.962493   3.570143   -0.328321 H        1 UNL1     0.0362
     68 H         -2.563812   2.265896   1.330996 H        1 UNL1     0.0741
     69 H         -1.133974   0.238368   2.264314 H        1 UNL1     0.0359
     70 H         0.981852   0.446714   2.956688 H        1 UNL1     0.0600
     71 H         1.863424   -0.506803   1.219348 H        1 UNL1     0.0348
     72 H         3.363814   1.408142   1.337086 H        1 UNL1     0.0602
     73 H         0.606156   5.403068   0.007715 H        1 UNL1     0.0628
     74 H         1.460708   5.194136   2.955037 H        1 UNL1     0.1022
     75 H         10.754957   2.848273   -3.543942 H        1 UNL1     0.0279
     76 H         10.617675   4.202704   -4.592737 H        1 UNL1     0.0279
     77 H         11.733568   4.205427   -3.167931 H        1 UNL1     0.0279
     78 H         8.800948   5.470578   -4.795636 H        1 UNL1     0.1553
     79 H         7.576879   3.932981   -4.543298 H        1 UNL1     0.1484
     80 H         3.845096   3.223873   -4.645533 H        1 UNL1     0.0317
     81 H         4.521051   4.809369   -4.990801 H        1 UNL1     0.0317
     82 H         6.43824   3.783729   -6.242261 H        1 UNL1     0.0428
     83 H         4.880978   3.316015   -6.888699 H        1 UNL1     0.0428
     84 H         6.812211   0.500235   -4.350026 H        1 UNL1     0.0428
     85 H         7.668006   1.970607   -4.657836 H        1 UNL1     0.0428
     86 H         6.430706   1.813532   -2.496987 H        1 UNL1     0.0317
     87 H         4.922198   1.607766   -3.261458 H        1 UNL1     0.0317
     88 H         7.057038   1.712926   -7.448589 H        1 UNL1     0.0429
     89 H         6.761685   0.143081   -6.697198 H        1 UNL1     0.0429
     90 H         4.227395   1.3943   -7.518859 H        1 UNL1     0.0308
     91 H         6.426542   1.22943   -9.64795 H        1 UNL1     0.0233
     92 H         4.689958   1.174179   -10.043825 H        1 UNL1     0.0233
     93 H         5.38067   2.60148   -9.301983 H        1 UNL1     0.0233
     94 H         4.149365   -0.755134   -8.908981 H        1 UNL1     0.0233
     95 H         5.682335   -1.166761   -8.124828 H        1 UNL1     0.0233
     96 H         4.221652   -0.913322   -7.141891 H        1 UNL1     0.0233
     97 H         3.784012   10.577217   0.674415 H        1 UNL1     0.0280
     98 H         5.397581   11.224583   0.554005 H        1 UNL1     0.0280
     99 H         4.277402   11.370467   -0.832951 H        1 UNL1     0.0280
     100 H         6.303895   11.130403   -2.144762 H        1 UNL1     0.2922
     101 H         4.727916   0.873303   2.431724 H        1 UNL1     0.0236
     102 H         6.128185   2.014107   2.49396 H        1 UNL1     0.0236
     103 H         6.284933   0.426982   1.806966 H        1 UNL1     0.0236
     104 H         4.310796   -0.606469   1.14321 H        1 UNL1     0.2098
     105 H         0.704105   1.330166   -0.863529 H        1 UNL1     0.0234
     106 H         1.268281   -0.353382   -1.059664 H        1 UNL1     0.0234
     107 H         0.0   -0.0   0.0 H        1 UNL1     0.0234
     108 H         1.217863   3.072203   1.965829 H        1 UNL1     0.2098
     109 H         0.984335   3.110543   -0.609025 H        1 UNL1     0.0234
     110 H         -0.27246   2.432106   -1.692073 H        1 UNL1     0.0234
     111 H         -0.08555   4.143501   -1.533847 H        1 UNL1     0.0234
     112 H         -3.543697   -1.843468   1.243773 H        1 UNL1     0.0342
     113 H         -3.392614   -0.24329   2.052995 H        1 UNL1     0.0342
     114 H         -4.429332   -0.433447   0.6363 H        1 UNL1     0.0342
     115 H         -2.62904   1.623438   3.471232 H        1 UNL1     0.0234
     116 H         -1.149614   1.366634   4.401897 H        1 UNL1     0.0234
     117 H         -1.514612   2.90306   3.589603 H        1 UNL1     0.0234
     118 H         0.612373   7.310144   -0.128796 H        1 UNL1     0.0309
     119 H         1.780658   8.215316   -1.140643 H        1 UNL1     0.0309
     120 H         1.518861   6.498033   -1.351729 H        1 UNL1     0.0309
     121 H         -0.788627   4.990968   4.440207 H        1 UNL1     0.0524
     122 H         -0.739226   6.151081   3.106583 H        1 UNL1     0.0524
     123 H         -2.269635   5.330537   3.504453 H        1 UNL1     0.0524
@<TRIPOS>BOND
     1     1     2    1
     2     1    42    1
     3     2     3    2
     4     3     4    1
     5     4     5    2
     6     5     7    1
     7     6    75    1
     8     6    76    1
     9     6    77    1
    10     7     9   am
    11     9    10    1
    12    10    11    2
    13    10    43    1
    14    11    14    1
    15    11    15    1
    16    12    13   ar
    17    12    27   ar
    18    12    43    1
    19    13    14    1
    20    13    30   ar
    21    14    17    2
    22    15    16    1
    23    16    17    1
    24    16    18    1
    25    16    22    1
    26    18    19    1
    27    19    20    1
    28    20    21    1
    29    21    22    1
    30    23    24    1
    31    23    88    1
    32    23    89    1
    33    24    25    1
    34    24    26    1
    35    24    90    1
    36    25    91    1
    37    25    92    1
    38    25    93    1
    39    26    94    1
    40    26    95    1
    41    26    96    1
    42    27    28   ar
    43    28    29   ar
    44    29    30   ar
    45    29    31    1
    46    30    33    1
    47    31    32    1
    48    32    33    1
    49    32    35    1
    50    34    97    1
    51    34    98    1
    52    34    99    1
    53    35    61    1
    54    36    37    1
    55    36    60    1
    56    37    38    1
    57    38    39    1
    58    39    40    1
    59    40    41    1
    60    41    42    1
    61    45   100    1
    62    47   101    1
    63    47   102    1
    64    47   103    1
    65    48   104    1
    66    49   105    1
    67    49   106    1
    68    49   107    1
    69    50   108    1
    70    51    59    1
    71    52   109    1
    72    52   110    1
    73    52   111    1
    74    53    54    1
    75    54    55    2
    76    54    56    1
    77    56   112    1
    78    56   113    1
    79    56   114    1
    80    57   115    1
    81    57   116    1
    82    57   117    1
    83    58   118    1
    84    58   119    1
    85    58   120    1
    86    59   121    1
    87    59   122    1
    88    59   123    1
    89    60    61    2
    90     1    47    1
    91     1    62    1
    92     2    63    1
    93     3    64    1
    94     4    65    1
    95     5     6    1
    96     7     8    2
    97     9    78    1
    98    15    79    1
    99    18    80    1
   100    18    81    1
   101    19    82    1
   102    19    83    1
   103    20    23    1
   104    21    84    1
   105    21    85    1
   106    22    86    1
   107    22    87    1
   108    27    45    1
   109    28    34    1
   110    32    58    1
   111    33    46    2
   112    36    51    1
   113    36    66    1
   114    37    52    1
   115    37    67    1
   116    38    53    1
   117    38    68    1
   118    42    48    1
   119    42    72    1
   120    43    44    2
   121    60    73    1
   122    61    74    1
   123    39    69    1
   124    39    57    1
   125    40    70    1
   126    40    50    1
   127    41    71    1
   128    41    49    1
