@<TRIPOS>MOLECULE
*****
 123 128 0 0 0
SMALL
GASTEIGER

@<TRIPOS>ATOM
     1 C         5.167925   1.744158   0.500048 C.3        1 UNL1     0.0009
     2 C         6.606525   2.54957   -0.34776 C.2        1 UNL1     -0.0787
     3 C         7.889378   2.450725   -1.011512 C.2        1 UNL1     -0.0649
     4 C         8.768897   3.685516   -1.765231 C.2        1 UNL1     -0.0542
     5 C         9.790607   3.977798   -2.70212 C.2        1 UNL1     0.0115
     6 C         10.919715   3.351884   -3.56622 C.3        1 UNL1     -0.0348
     7 C         9.887962   5.461224   -3.30789 C.2        1 UNL1     0.2441
     8 O         10.71184   6.282131   -2.928599 O.2        1 UNL1     -0.2702
     9 N         9.139729   5.669189   -4.479662 N.am        1 UNL1     -0.2772
     10 C         7.856801   6.056668   -4.16777 C.2        1 UNL1     0.1049
     11 C         7.009861   5.085748   -3.877548 C.2        1 UNL1     0.0801
     12 C         6.557346   7.663697   -2.758441 C.ar        1 UNL1     0.0753
     13 C         5.796778   6.536151   -2.312589 C.ar        1 UNL1     0.0305
     14 C         5.913786   5.23062   -2.958304 C.2        1 UNL1     0.0924
     15 N         7.131777   3.756744   -4.036968 N.pl3        1 UNL1     -0.3170
     16 C         5.860996   3.158363   -3.725023 C.3        1 UNL1     0.1275
     17 N         5.223743   4.11367   -2.745726 N.2        1 UNL1     -0.2557
     18 C         5.010177   3.218542   -4.990008 C.3        1 UNL1     0.0016
     19 C         5.766339   2.534351   -6.1177 C.3        1 UNL1     0.0026
     20 N         6.034886   1.155904   -5.73196 N.3        1 UNL1     -0.3018
     21 C         6.796179   0.994476   -4.4915 C.3        1 UNL1     0.0026
     22 C         6.01617   1.685115   -3.371456 C.3        1 UNL1     0.0016
     23 C         6.480547   0.336483   -6.841274 C.3        1 UNL1     0.0012
     24 C         5.32535   0.084584   -7.823019 C.3        1 UNL1     -0.0339
     25 C         5.343968   1.092609   -8.983878 C.3        1 UNL1     -0.0615
     26 C         5.37212   -1.347853   -8.325728 C.3        1 UNL1     -0.0615
     27 C         6.352749   8.931326   -2.218649 C.ar        1 UNL1     0.1347
     28 C         5.392378   9.201187   -1.26005 C.ar        1 UNL1     0.0342
     29 C         4.68928   8.067061   -0.801164 C.ar        1 UNL1     0.1435
     30 C         4.908596   6.785074   -1.306763 C.ar        1 UNL1     0.0774
     31 O         3.647032   8.181042   0.050737 O.3        1 UNL1     -0.4436
     32 C         2.924694   6.948797   -0.093037 C.3        1 UNL1     0.3143
     33 C         3.938111   5.955171   -0.623985 C.2        1 UNL1     0.2504
     34 C         4.945829   10.56744   -0.819542 C.3        1 UNL1     -0.0327
     35 O         2.561682   6.511845   1.222466 O.2        1 UNL1     -0.4528
     36 C         -0.682124   4.582143   0.819906 C.3        1 UNL1     0.0854
     37 C         -0.98693   3.322125   -0.07841 C.3        1 UNL1     0.0236
     38 C         -1.589623   2.061209   0.708099 C.3        1 UNL1     0.1131
     39 C         -0.866282   1.529252   2.010432 C.3        1 UNL1     0.0200
     40 C         0.794739   1.382498   2.05414 C.3        1 UNL1     0.0661
     41 C         1.755381   0.613428   0.886533 C.3        1 UNL1     0.0091
     42 C         3.464108   0.974974   0.325338 C.3        1 UNL1     0.0661
     43 C         7.50899   7.455742   -3.877989 C.2        1 UNL1     0.2131
     44 O         7.91064   8.353807   -4.595549 O.2        1 UNL1     -0.2851
     45 O         7.166474   9.966024   -2.675472 O.3        1 UNL1     -0.5056
     46 O         3.953031   4.751575   -0.493643 O.2        1 UNL1     -0.2836
     47 C         5.561732   1.313848   1.938704 C.3        1 UNL1     -0.0566
     48 O         3.911529   -0.436485   0.407285 O.3        1 UNL1     -0.3909
     49 C         0.922964   0.381909   -0.354827 C.3        1 UNL1     -0.0577
     50 O         1.395199   2.599779   2.448346 O.3        1 UNL1     -0.3910
     51 O         -0.808521   4.39203   2.211061 O.3        1 UNL1     -0.3753
     52 C         0.059206   3.161339   -1.229364 C.3        1 UNL1     -0.0564
     53 O         -2.191568   1.023   -0.193072 O.3        1 UNL1     -0.4608
     54 C         -2.41534   -0.286956   0.141396 C.2        1 UNL1     0.3042
     55 O         -1.843188   -1.280187   -0.305788 O.2        1 UNL1     -0.2512
     56 C         -3.446527   -0.464732   1.219247 C.3        1 UNL1     0.0332
     57 C         -1.588795   2.198289   3.270805 C.3        1 UNL1     -0.0567
     58 C         1.851367   7.195071   -1.178784 C.3        1 UNL1     0.0210
     59 C         -1.160646   5.562935   2.94649 C.3        1 UNL1     0.0372
     60 C         0.647682   5.210355   0.591599 C.2        1 UNL1     -0.0208
     61 C         1.559575   5.644603   1.46259 C.2        1 UNL1     0.0882
     62 H         4.692579   2.72864   0.586945 H        1 UNL1     0.0365
     63 H         6.340874   3.603521   -0.242474 H        1 UNL1     0.0576
     64 H         8.346678   1.483628   -1.23221 H        1 UNL1     0.0615
     65 H         8.281936   4.601133   -1.418828 H        1 UNL1     0.0622
     66 H         -1.425752   5.329324   0.508805 H        1 UNL1     0.0645
     67 H         -1.851303   3.632344   -0.690933 H        1 UNL1     0.0362
     68 H         -2.536924   2.498637   1.058527 H        1 UNL1     0.0741
     69 H         -1.198838   0.518321   2.204939 H        1 UNL1     0.0359
     70 H         0.904667   0.721758   2.935276 H        1 UNL1     0.0600
     71 H         1.797563   -0.407928   1.313161 H        1 UNL1     0.0348
     72 H         3.357056   1.462891   1.305028 H        1 UNL1     0.0602
     73 H         0.767331   5.407905   -0.444696 H        1 UNL1     0.0628
     74 H         1.540214   5.433555   2.532319 H        1 UNL1     0.1022
     75 H         10.96316   2.246517   -3.413546 H        1 UNL1     0.0279
     76 H         10.807818   3.435155   -4.64493 H        1 UNL1     0.0279
     77 H         11.924501   3.655741   -3.237926 H        1 UNL1     0.0279
     78 H         9.077916   4.79948   -5.004888 H        1 UNL1     0.1553
     79 H         7.797696   3.328501   -4.653484 H        1 UNL1     0.1484
     80 H         4.048241   2.728231   -4.797547 H        1 UNL1     0.0317
     81 H         4.784739   4.255559   -5.260978 H        1 UNL1     0.0317
     82 H         6.69777   3.065071   -6.364045 H        1 UNL1     0.0428
     83 H         5.142612   2.590275   -7.010386 H        1 UNL1     0.0428
     84 H         6.915266   -0.048677   -4.18253 H        1 UNL1     0.0428
     85 H         7.826698   1.361802   -4.593583 H        1 UNL1     0.0428
     86 H         6.531001   1.434044   -2.462666 H        1 UNL1     0.0317
     87 H         5.036187   1.208141   -3.248064 H        1 UNL1     0.0317
     88 H         7.275632   0.87927   -7.36902 H        1 UNL1     0.0429
     89 H         6.914743   -0.608384   -6.489884 H        1 UNL1     0.0429
     90 H         4.372547   0.183856   -7.289609 H        1 UNL1     0.0308
     91 H         6.291881   1.054071   -9.528927 H        1 UNL1     0.0233
     92 H         4.523023   0.897729   -9.67791 H        1 UNL1     0.0233
     93 H         5.21582   2.126547   -8.64126 H        1 UNL1     0.0233
     94 H         4.675572   -1.477921   -9.161036 H        1 UNL1     0.0233
     95 H         6.377403   -1.585109   -8.685002 H        1 UNL1     0.0233
     96 H         5.1026   -2.056387   -7.537498 H        1 UNL1     0.0233
     97 H         4.151307   10.517964   -0.080951 H        1 UNL1     0.0280
     98 H         5.758263   11.136725   -0.349306 H        1 UNL1     0.0280
     99 H         4.573908   11.13256   -1.689835 H        1 UNL1     0.0280
     100 H         6.70048   10.716697   -2.999452 H        1 UNL1     0.2922
     101 H         4.698227   0.879223   2.441811 H        1 UNL1     0.0236
     102 H         6.010804   2.11907   2.519165 H        1 UNL1     0.0236
     103 H         6.318545   0.511708   1.938493 H        1 UNL1     0.0236
     104 H         4.329617   -0.563093   1.281438 H        1 UNL1     0.2098
     105 H         0.712487   1.280992   -0.928552 H        1 UNL1     0.0234
     106 H         1.292383   -0.40665   -1.010289 H        1 UNL1     0.0234
     107 H         0.0   -0.0   0.0 H        1 UNL1     0.0234
     108 H         1.195804   3.259158   1.756083 H        1 UNL1     0.2098
     109 H         1.082597   3.040797   -0.847458 H        1 UNL1     0.0234
     110 H         -0.176072   2.338507   -1.912982 H        1 UNL1     0.0234
     111 H         0.08645   4.046931   -1.878156 H        1 UNL1     0.0234
     112 H         -3.574119   -1.528767   1.44037 H        1 UNL1     0.0342
     113 H         -3.198015   0.094458   2.12002 H        1 UNL1     0.0342
     114 H         -4.405223   -0.081535   0.843445 H        1 UNL1     0.0342
     115 H         -2.653228   1.930609   3.320974 H        1 UNL1     0.0234
     116 H         -1.138927   1.937074   4.230719 H        1 UNL1     0.0234
     117 H         -1.648378   3.298649   3.210807 H        1 UNL1     0.0234
     118 H         0.950006   7.682476   -0.7677 H        1 UNL1     0.0309
     119 H         2.22247   7.783093   -2.024192 H        1 UNL1     0.0309
     120 H         1.462786   6.263544   -1.604659 H        1 UNL1     0.0309
     121 H         -0.361453   6.290911   2.809755 H        1 UNL1     0.0524
     122 H         -2.094059   6.021996   2.580373 H        1 UNL1     0.0524
     123 H         -1.274532   5.324829   4.000259 H        1 UNL1     0.0524
@<TRIPOS>BOND
     1     1     2    1
     2     1    42    1
     3     2     3    2
     4     3     4    1
     5     4     5    2
     6     5     7    1
     7     6    75    1
     8     6    76    1
     9     6    77    1
    10     7     9   am
    11     9    10    1
    12    10    11    2
    13    10    43    1
    14    11    14    1
    15    11    15    1
    16    12    13   ar
    17    12    27   ar
    18    12    43    1
    19    13    14    1
    20    13    30   ar
    21    14    17    2
    22    15    16    1
    23    16    17    1
    24    16    18    1
    25    16    22    1
    26    18    19    1
    27    19    20    1
    28    20    21    1
    29    21    22    1
    30    23    24    1
    31    23    88    1
    32    23    89    1
    33    24    25    1
    34    24    26    1
    35    24    90    1
    36    25    91    1
    37    25    92    1
    38    25    93    1
    39    26    94    1
    40    26    95    1
    41    26    96    1
    42    27    28   ar
    43    28    29   ar
    44    29    30   ar
    45    29    31    1
    46    30    33    1
    47    31    32    1
    48    32    33    1
    49    32    35    1
    50    34    97    1
    51    34    98    1
    52    34    99    1
    53    35    61    1
    54    36    37    1
    55    36    60    1
    56    37    38    1
    57    38    39    1
    58    39    40    1
    59    40    41    1
    60    41    42    1
    61    45   100    1
    62    47   101    1
    63    47   102    1
    64    47   103    1
    65    48   104    1
    66    49   105    1
    67    49   106    1
    68    49   107    1
    69    50   108    1
    70    51    59    1
    71    52   109    1
    72    52   110    1
    73    52   111    1
    74    53    54    1
    75    54    55    2
    76    54    56    1
    77    56   112    1
    78    56   113    1
    79    56   114    1
    80    57   115    1
    81    57   116    1
    82    57   117    1
    83    58   118    1
    84    58   119    1
    85    58   120    1
    86    59   121    1
    87    59   122    1
    88    59   123    1
    89    60    61    2
    90     1    47    1
    91     1    62    1
    92     2    63    1
    93     3    64    1
    94     4    65    1
    95     5     6    1
    96     7     8    2
    97     9    78    1
    98    15    79    1
    99    18    80    1
   100    18    81    1
   101    19    82    1
   102    19    83    1
   103    20    23    1
   104    21    84    1
   105    21    85    1
   106    22    86    1
   107    22    87    1
   108    27    45    1
   109    28    34    1
   110    32    58    1
   111    33    46    2
   112    36    51    1
   113    36    66    1
   114    37    52    1
   115    37    67    1
   116    38    53    1
   117    38    68    1
   118    42    48    1
   119    42    72    1
   120    43    44    2
   121    60    73    1
   122    61    74    1
   123    39    69    1
   124    39    57    1
   125    40    70    1
   126    40    50    1
   127    41    71    1
   128    41    49    1
