@<TRIPOS>MOLECULE
*****
 123 128 0 0 0
SMALL
GASTEIGER

@<TRIPOS>ATOM
     1 C         4.981903   2.089012   0.903294 C.3        1 UNL1     0.0009
     2 C         6.411412   3.021426   0.179315 C.2        1 UNL1     -0.0787
     3 C         7.7395   3.03531   -0.396911 C.2        1 UNL1     -0.0649
     4 C         8.575113   4.353163   -1.0537 C.2        1 UNL1     -0.0542
     5 C         9.633086   4.747406   -1.90947 C.2        1 UNL1     0.0115
     6 C         10.859941   4.231474   -2.710697 C.3        1 UNL1     -0.0348
     7 C         9.662378   6.252959   -2.465745 C.2        1 UNL1     0.2441
     8 O         10.397121   7.117315   -2.00796 O.2        1 UNL1     -0.2702
     9 N         8.98089   6.445535   -3.680093 N.am        1 UNL1     -0.2772
     10 C         7.655197   6.730871   -3.44676 C.2        1 UNL1     0.1049
     11 C         6.863732   5.693502   -3.242629 C.2        1 UNL1     0.0801
     12 C         6.15098   8.195107   -2.086364 C.ar        1 UNL1     0.0753
     13 C         5.446479   7.002627   -1.72542 C.ar        1 UNL1     0.0305
     14 C         5.701099   5.730395   -2.397466 C.2        1 UNL1     0.0924
     15 N         7.092479   4.382364   -3.430035 N.pl3        1 UNL1     -0.3170
     16 C         5.850666   3.685696   -3.223133 C.3        1 UNL1     0.1275
     17 N         5.081581   4.561075   -2.263996 N.2        1 UNL1     -0.2557
     18 C         5.084079   3.726712   -4.541603 C.3        1 UNL1     0.0016
     19 C         5.961654   3.134878   -5.633017 C.3        1 UNL1     0.0026
     20 N         6.30352   1.767054   -5.268032 N.3        1 UNL1     -0.3018
     21 C         6.99003   1.619559   -3.982996 C.3        1 UNL1     0.0026
     22 C         6.088765   2.216384   -2.900676 C.3        1 UNL1     0.0016
     23 C         6.880734   1.017825   -6.366269 C.3        1 UNL1     0.0012
     24 C         5.816072   0.720717   -7.433966 C.3        1 UNL1     -0.0339
     25 C         5.848694   1.76123   -8.56548 C.3        1 UNL1     -0.0615
     26 C         5.992699   -0.690479   -7.966985 C.3        1 UNL1     -0.0615
     27 C         5.819031   9.426806   -1.527038 C.ar        1 UNL1     0.1347
     28 C         4.779708   9.59663   -0.62981 C.ar        1 UNL1     0.0342
     29 C         4.132007   8.401233   -0.252088 C.ar        1 UNL1     0.1435
     30 C         4.477365   7.155147   -0.7767 C.ar        1 UNL1     0.0774
     31 O         3.029683   8.413334   0.528772 O.3        1 UNL1     -0.4436
     32 C         2.410215   7.1384   0.301454 C.3        1 UNL1     0.3143
     33 C         3.526482   6.236825   -0.185706 C.2        1 UNL1     0.2504
     34 C         4.206438   10.912766   -0.183438 C.3        1 UNL1     -0.0327
     35 O         1.992976   6.634203   1.576189 O.2        1 UNL1     -0.4528
     36 C         -1.067556   4.493915   0.89766 C.3        1 UNL1     0.0854
     37 C         -1.219138   3.245439   -0.054104 C.3        1 UNL1     0.0236
     38 C         -1.779564   1.920064   0.653742 C.3        1 UNL1     0.1131
     39 C         -1.107969   1.398464   1.987595 C.3        1 UNL1     0.0200
     40 C         0.552695   1.368287   2.141614 C.3        1 UNL1     0.0661
     41 C         1.642597   0.707605   1.022139 C.3        1 UNL1     0.0091
     42 C         3.354101   1.207277   0.590301 C.3        1 UNL1     0.0661
     43 C         7.187855   8.09163   -3.142982 C.2        1 UNL1     0.2131
     44 O         7.570044   9.038781   -3.805984 O.2        1 UNL1     -0.2851
     45 O         6.583922   10.53084   -1.897831 O.3        1 UNL1     -0.5056
     46 O         3.620279   5.033696   -0.088052 O.2        1 UNL1     -0.2836
     47 C         5.309074   1.640985   2.353194 C.3        1 UNL1     -0.0566
     48 O         3.896651   -0.170896   0.663748 O.3        1 UNL1     -0.3909
     49 C         0.913988   0.458343   -0.279587 C.3        1 UNL1     -0.0577
     50 O         1.035252   2.611513   2.609856 O.3        1 UNL1     -0.3910
     51 O         -1.272365   4.250086   2.270988 O.3        1 UNL1     -0.3753
     52 C         -0.089571   3.196699   -1.13422 C.3        1 UNL1     -0.0564
     53 O         -2.242794   0.871786   -0.315205 O.3        1 UNL1     -0.4608
     54 C         -2.404979   -0.458691   -0.029797 C.2        1 UNL1     0.3042
     55 O         -1.736726   -1.400496   -0.454389 O.2        1 UNL1     -0.2512
     56 C         -3.501059   -0.732086   0.960444 C.3        1 UNL1     0.0332
     57 C         -1.959813   1.973247   3.213221 C.3        1 UNL1     -0.0567
     58 C         1.396691   7.343355   -0.848455 C.3        1 UNL1     0.0210
     59 C         -1.749657   5.37075   3.014069 C.3        1 UNL1     0.0372
     60 C         0.225237   5.221775   0.77906 C.2        1 UNL1     -0.0208
     61 C         1.042896   5.690848   1.722537 C.2        1 UNL1     0.0882
     62 H         4.431387   3.034027   0.984467 H        1 UNL1     0.0365
     63 H         6.063278   4.04994   0.295207 H        1 UNL1     0.0576
     64 H         8.279726   2.110713   -0.612278 H        1 UNL1     0.0615
     65 H         8.000728   5.220241   -0.716447 H        1 UNL1     0.0622
     66 H         -1.84119   5.196337   0.556865 H        1 UNL1     0.0645
     67 H         -2.06098   3.513507   -0.71592 H        1 UNL1     0.0362
     68 H         -2.777482   2.277696   0.950024 H        1 UNL1     0.0741
     69 H         -1.378262   0.36073   2.130625 H        1 UNL1     0.0359
     70 H         0.651378   0.688614   3.00958 H        1 UNL1     0.0600
     71 H         1.73047   -0.321567   1.42219 H        1 UNL1     0.0348
     72 H         3.146634   1.654199   1.573426 H        1 UNL1     0.0602
     73 H         0.399099   5.460972   -0.240649 H        1 UNL1     0.0628
     74 H         0.967583   5.4442   2.782126 H        1 UNL1     0.1022
     75 H         10.973479   3.127565   -2.586083 H        1 UNL1     0.0279
     76 H         10.814544   4.341737   -3.791831 H        1 UNL1     0.0279
     77 H         11.815766   4.594818   -2.305627 H        1 UNL1     0.0279
     78 H         9.01778   5.591216   -4.232231 H        1 UNL1     0.1553
     79 H         7.827487   4.022649   -4.010812 H        1 UNL1     0.1484
     80 H         4.149707   3.163539   -4.429572 H        1 UNL1     0.0317
     81 H         4.802314   4.753454   -4.798626 H        1 UNL1     0.0317
     82 H         6.866325   3.737935   -5.799766 H        1 UNL1     0.0428
     83 H         5.396503   3.175588   -6.56468 H        1 UNL1     0.0428
     84 H         7.163874   0.577934   -3.69558 H        1 UNL1     0.0428
     85 H         7.995571   2.062029   -4.003581 H        1 UNL1     0.0428
     86 H         6.55869   1.972888   -1.965867 H        1 UNL1     0.0317
     87 H         5.140074   1.667481   -2.858395 H        1 UNL1     0.0317
     88 H         7.669784   1.631161   -6.820707 H        1 UNL1     0.0429
     89 H         7.355448   0.093567   -6.012478 H        1 UNL1     0.0429
     90 H         4.82391   0.742812   -6.96777 H        1 UNL1     0.0308
     91 H         6.834116   1.80303   -9.039082 H        1 UNL1     0.0233
     92 H         5.096016   1.531527   -9.323321 H        1 UNL1     0.0233
     93 H         5.624122   2.773625   -8.208466 H        1 UNL1     0.0233
     94 H         5.366263   -0.840773   -8.852889 H        1 UNL1     0.0233
     95 H         7.034108   -0.851902   -8.259172 H        1 UNL1     0.0233
     96 H         5.716461   -1.437563   -7.217635 H        1 UNL1     0.0233
     97 H         3.370097   10.783132   0.496973 H        1 UNL1     0.0280
     98 H         4.942046   11.52249   0.357278 H        1 UNL1     0.0280
     99 H         3.853284   11.478215   -1.061301 H        1 UNL1     0.0280
     100 H         6.087087   11.257174   -2.231323 H        1 UNL1     0.2922
     101 H         4.447316   1.131542   2.783888 H        1 UNL1     0.0236
     102 H         5.660004   2.456322   2.984903 H        1 UNL1     0.0236
     103 H         6.119557   0.893701   2.382805 H        1 UNL1     0.0236
     104 H         4.263554   -0.296025   1.560796 H        1 UNL1     0.2098
     105 H         0.676702   1.358549   -0.840956 H        1 UNL1     0.0234
     106 H         1.38319   -0.279758   -0.929958 H        1 UNL1     0.0234
     107 H         0.0   -0.0   0.0 H        1 UNL1     0.0234
     108 H         0.838192   3.276696   1.922493 H        1 UNL1     0.2098
     109 H         0.912423   3.142735   -0.686104 H        1 UNL1     0.0234
     110 H         -0.214813   2.378277   -1.851328 H        1 UNL1     0.0234
     111 H         -0.087592   4.099933   -1.758809 H        1 UNL1     0.0234
     112 H         -3.571959   -1.807506   1.149631 H        1 UNL1     0.0342
     113 H         -3.361182   -0.18044   1.888864 H        1 UNL1     0.0342
     114 H         -4.452169   -0.404437   0.518629 H        1 UNL1     0.0342
     115 H         -3.008841   1.649577   3.16887 H        1 UNL1     0.0234
     116 H         -1.57094   1.693108   4.194215 H        1 UNL1     0.0234
     117 H         -2.074381   3.070702   3.193002 H        1 UNL1     0.0234
     118 H         0.436799   7.752085   -0.487133 H        1 UNL1     0.0309
     119 H         1.779596   7.983412   -1.64965 H        1 UNL1     0.0309
     120 H         1.106281   6.401042   -1.325754 H        1 UNL1     0.0309
     121 H         -0.992242   6.151934   2.955503 H        1 UNL1     0.0524
     122 H         -2.683845   5.782181   2.596869 H        1 UNL1     0.0524
     123 H         -1.919513   5.090236   4.049712 H        1 UNL1     0.0524
@<TRIPOS>BOND
     1     1     2    1
     2     1    42    1
     3     2     3    2
     4     3     4    1
     5     4     5    2
     6     5     7    1
     7     6    75    1
     8     6    76    1
     9     6    77    1
    10     7     9   am
    11     9    10    1
    12    10    11    2
    13    10    43    1
    14    11    14    1
    15    11    15    1
    16    12    13   ar
    17    12    27   ar
    18    12    43    1
    19    13    14    1
    20    13    30   ar
    21    14    17    2
    22    15    16    1
    23    16    17    1
    24    16    18    1
    25    16    22    1
    26    18    19    1
    27    19    20    1
    28    20    21    1
    29    21    22    1
    30    23    24    1
    31    23    88    1
    32    23    89    1
    33    24    25    1
    34    24    26    1
    35    24    90    1
    36    25    91    1
    37    25    92    1
    38    25    93    1
    39    26    94    1
    40    26    95    1
    41    26    96    1
    42    27    28   ar
    43    28    29   ar
    44    29    30   ar
    45    29    31    1
    46    30    33    1
    47    31    32    1
    48    32    33    1
    49    32    35    1
    50    34    97    1
    51    34    98    1
    52    34    99    1
    53    35    61    1
    54    36    37    1
    55    36    60    1
    56    37    38    1
    57    38    39    1
    58    39    40    1
    59    40    41    1
    60    41    42    1
    61    45   100    1
    62    47   101    1
    63    47   102    1
    64    47   103    1
    65    48   104    1
    66    49   105    1
    67    49   106    1
    68    49   107    1
    69    50   108    1
    70    51    59    1
    71    52   109    1
    72    52   110    1
    73    52   111    1
    74    53    54    1
    75    54    55    2
    76    54    56    1
    77    56   112    1
    78    56   113    1
    79    56   114    1
    80    57   115    1
    81    57   116    1
    82    57   117    1
    83    58   118    1
    84    58   119    1
    85    58   120    1
    86    59   121    1
    87    59   122    1
    88    59   123    1
    89    60    61    2
    90     1    47    1
    91     1    62    1
    92     2    63    1
    93     3    64    1
    94     4    65    1
    95     5     6    1
    96     7     8    2
    97     9    78    1
    98    15    79    1
    99    18    80    1
   100    18    81    1
   101    19    82    1
   102    19    83    1
   103    20    23    1
   104    21    84    1
   105    21    85    1
   106    22    86    1
   107    22    87    1
   108    27    45    1
   109    28    34    1
   110    32    58    1
   111    33    46    2
   112    36    51    1
   113    36    66    1
   114    37    52    1
   115    37    67    1
   116    38    53    1
   117    38    68    1
   118    42    48    1
   119    42    72    1
   120    43    44    2
   121    60    73    1
   122    61    74    1
   123    39    69    1
   124    39    57    1
   125    40    70    1
   126    40    50    1
   127    41    71    1
   128    41    49    1
