@<TRIPOS>MOLECULE
*****
 123 128 0 0 0
SMALL
GASTEIGER

@<TRIPOS>ATOM
     1 C         4.134431   3.445395   0.631604 C.3        1 UNL1     0.0009
     2 C         4.952391   4.943162   -0.092739 C.2        1 UNL1     -0.0787
     3 C         6.063764   5.55261   -0.792359 C.2        1 UNL1     -0.0649
     4 C         6.201284   7.150233   -1.33554 C.2        1 UNL1     -0.0542
     5 C         6.875512   8.018852   -2.228846 C.2        1 UNL1     0.0115
     6 C         8.070781   8.126059   -3.215335 C.3        1 UNL1     -0.0348
     7 C         6.223276   9.446691   -2.564784 C.2        1 UNL1     0.2441
     8 O         6.616182   10.491873   -2.065038 O.2        1 UNL1     -0.2702
     9 N         5.347096   9.449991   -3.664078 N.am        1 UNL1     -0.2772
     10 C         4.06807   9.143655   -3.259637 C.2        1 UNL1     0.1049
     11 C         3.791644   7.859088   -3.126602 C.2        1 UNL1     0.0801
     12 C         2.330624   9.733114   -1.559298 C.ar        1 UNL1     0.0753
     13 C         2.217888   8.329513   -1.302779 C.ar        1 UNL1     0.0305
     14 C         2.850546   7.339652   -2.171668 C.2        1 UNL1     0.0924
     15 N         4.489077   6.780029   -3.521248 N.pl3        1 UNL1     -0.3170
     16 C         3.670292   5.619425   -3.291369 C.3        1 UNL1     0.1275
     17 N         2.771475   6.012274   -2.144407 N.2        1 UNL1     -0.2557
     18 C         2.761263   5.459549   -4.506197 C.3        1 UNL1     0.0016
     19 C         3.62642   5.380352   -5.753924 C.3        1 UNL1     0.0026
     20 N         4.531787   4.24699   -5.624205 N.3        1 UNL1     -0.3018
     21 C         5.405321   4.280348   -4.449388 C.3        1 UNL1     0.0026
     22 C         4.515358   4.355155   -3.207509 C.3        1 UNL1     0.0016
     23 C         5.185962   3.902235   -6.870737 C.3        1 UNL1     0.0012
     24 C         4.178186   3.290744   -7.856749 C.3        1 UNL1     -0.0339
     25 C         4.834759   2.214438   -8.736826 C.3        1 UNL1     -0.0615
     26 C         2.97955   2.741586   -7.102774 C.3        1 UNL1     -0.0615
     27 C         1.626974   10.664503   -0.799357 C.ar        1 UNL1     0.1347
     28 C         0.752892   10.311679   0.213334 C.ar        1 UNL1     0.0342
     29 C         0.695299   8.927258   0.480215 C.ar        1 UNL1     0.1435
     30 C         1.422005   7.985221   -0.248953 C.ar        1 UNL1     0.0774
     31 O         -0.191012   8.415833   1.362204 O.3        1 UNL1     -0.4436
     32 C         -0.282512   7.024853   1.019164 C.3        1 UNL1     0.3143
     33 C         1.012201   6.708671   0.298082 C.2        1 UNL1     0.2504
     34 C         -0.21979   11.230668   0.898497 C.3        1 UNL1     -0.0327
     35 O         -0.269694   6.282184   2.244534 O.2        1 UNL1     -0.4528
     36 C         -2.298926   3.143801   1.580559 C.3        1 UNL1     0.0854
     37 C         -2.085784   2.033657   0.480708 C.3        1 UNL1     0.0236
     38 C         -1.963291   0.537659   1.04527 C.3        1 UNL1     0.1131
     39 C         -0.948045   0.221069   2.216302 C.3        1 UNL1     0.0200
     40 C         0.591868   0.861915   2.195779 C.3        1 UNL1     0.0661
     41 C         1.672427   0.809947   0.889142 C.3        1 UNL1     0.0091
     42 C         2.960898   2.004766   0.362215 C.3        1 UNL1     0.0661
     43 C         3.152305   10.159367   -2.719216 C.2        1 UNL1     0.2131
     44 O         3.024559   11.234964   -3.275552 O.2        1 UNL1     -0.2851
     45 O         1.827918   12.013529   -1.084294 O.3        1 UNL1     -0.5056
     46 O         1.587492   5.646748   0.213152 O.2        1 UNL1     -0.2836
     47 C         4.825929   3.04376   1.962205 C.3        1 UNL1     -0.0566
     48 O         4.008394   0.970457   0.183124 O.3        1 UNL1     -0.3909
     49 C         0.915081   0.400772   -0.354441 C.3        1 UNL1     -0.0577
     50 O         0.608049   2.146387   2.78535 O.3        1 UNL1     -0.3910
     51 O         -2.181721   2.715826   2.918667 O.3        1 UNL1     -0.3753
     52 C         -1.205278   2.549742   -0.703908 C.3        1 UNL1     -0.0564
     53 O         -2.114279   -0.517274   -0.011444 O.3        1 UNL1     -0.4608
     54 C         -1.414476   -1.694246   -0.065696 C.2        1 UNL1     0.3042
     55 O         -0.461779   -1.963717   -0.79617 O.2        1 UNL1     -0.2512
     56 C         -1.871055   -2.712301   0.940194 C.3        1 UNL1     0.0332
     57 C         -1.762973   0.283377   3.591142 C.3        1 UNL1     -0.0567
     58 C         -1.45478   6.897277   0.018645 C.3        1 UNL1     0.0210
     59 C         -3.413094   2.647889   3.636281 C.3        1 UNL1     0.0372
     60 C         -1.433003   4.34576   1.436918 C.2        1 UNL1     -0.0208
     61 C         -0.735702   5.022947   2.350118 C.2        1 UNL1     0.0882
     62 H         3.27419   4.069578   0.901959 H        1 UNL1     0.0365
     63 H         4.247751   5.723125   0.203252 H        1 UNL1     0.0576
     64 H         6.88644   4.954709   -1.19089 H        1 UNL1     0.0615
     65 H         5.388711   7.671031   -0.821751 H        1 UNL1     0.0622
     66 H         -3.328865   3.493902   1.423398 H        1 UNL1     0.0645
     67 H         -3.054072   1.990274   -0.047588 H        1 UNL1     0.0362
     68 H         -2.964417   0.42591   1.48887 H        1 UNL1     0.0741
     69 H         -0.761243   -0.844345   2.236442 H        1 UNL1     0.0359
     70 H         1.08043   0.208208   2.943466 H        1 UNL1     0.0600
     71 H         2.219031   -0.123559   1.127362 H        1 UNL1     0.0348
     72 H         2.743983   2.237328   1.414916 H        1 UNL1     0.0602
     73 H         -1.523272   4.725251   0.449453 H        1 UNL1     0.0628
     74 H         -0.547192   4.673606   3.365825 H        1 UNL1     0.1022
     75 H         9.000832   7.719247   -2.749992 H        1 UNL1     0.0279
     76 H         7.995645   7.547365   -4.133233 H        1 UNL1     0.0279
     77 H         8.365501   9.166751   -3.414837 H        1 UNL1     0.0279
     78 H         5.635269   8.739225   -4.333292 H        1 UNL1     0.1553
     79 H         5.210029   6.807319   -4.218684 H        1 UNL1     0.1484
     80 H         2.154038   4.554805   -4.381765 H        1 UNL1     0.0317
     81 H         2.061418   6.298454   -4.584339 H        1 UNL1     0.0317
     82 H         4.182739   6.313975   -5.923541 H        1 UNL1     0.0428
     83 H         2.958181   5.268386   -6.608307 H        1 UNL1     0.0428
     84 H         6.017823   3.380904   -4.332535 H        1 UNL1     0.0428
     85 H         6.138497   5.096627   -4.508191 H        1 UNL1     0.0428
     86 H         5.177944   4.243726   -2.369325 H        1 UNL1     0.0317
     87 H         3.879034   3.463708   -3.14827 H        1 UNL1     0.0317
     88 H         5.590209   4.823389   -7.310459 H        1 UNL1     0.0429
     89 H         6.034681   3.226922   -6.702204 H        1 UNL1     0.0429
     90 H         3.786307   4.08202   -8.50677 H        1 UNL1     0.0308
     91 H         5.446474   1.531348   -8.139921 H        1 UNL1     0.0233
     92 H         4.076864   1.640118   -9.274749 H        1 UNL1     0.0233
     93 H         5.492529   2.644586   -9.501775 H        1 UNL1     0.0233
     94 H         2.465444   1.987496   -7.70848 H        1 UNL1     0.0233
     95 H         3.308335   2.262822   -6.176142 H        1 UNL1     0.0233
     96 H         2.265797   3.53294   -6.857248 H        1 UNL1     0.0233
     97 H         -1.245216   10.888277   0.796027 H        1 UNL1     0.0280
     98 H         -0.032796   11.300714   1.978026 H        1 UNL1     0.0280
     99 H         -0.146689   12.239114   0.45942 H        1 UNL1     0.0280
     100 H         2.731191   12.271012   -1.142803 H        1 UNL1     0.2922
     101 H         4.200297   3.337252   2.804881 H        1 UNL1     0.0236
     102 H         5.84049   3.430567   2.051808 H        1 UNL1     0.0236
     103 H         4.932346   1.950465   2.060064 H        1 UNL1     0.0236
     104 H         4.219784   0.92668   -0.76996 H        1 UNL1     0.2098
     105 H         0.680312   1.221406   -1.027682 H        1 UNL1     0.0234
     106 H         1.360587   -0.425983   -0.907549 H        1 UNL1     0.0234
     107 H         0.0   -0.0   0.0 H        1 UNL1     0.0234
     108 H         -0.20744   2.604666   2.504766 H        1 UNL1     0.2098
     109 H         -1.661376   3.406981   -1.218522 H        1 UNL1     0.0234
     110 H         -0.18387   2.804904   -0.401649 H        1 UNL1     0.0234
     111 H         -1.070222   1.778383   -1.473786 H        1 UNL1     0.0234
     112 H         -1.260292   -3.616498   0.858085 H        1 UNL1     0.0342
     113 H         -1.854295   -2.320407   1.956059 H        1 UNL1     0.0342
     114 H         -2.90928   -2.984737   0.705601 H        1 UNL1     0.0342
     115 H         -1.473983   1.152392   4.198172 H        1 UNL1     0.0234
     116 H         -2.846768   0.317705   3.463635 H        1 UNL1     0.0234
     117 H         -1.527226   -0.545791   4.280233 H        1 UNL1     0.0234
     118 H         -2.320425   6.37217   0.459019 H        1 UNL1     0.0309
     119 H         -1.785804   7.86129   -0.380484 H        1 UNL1     0.0309
     120 H         -1.200556   6.280493   -0.850293 H        1 UNL1     0.0309
     121 H         -3.184812   2.768353   4.694928 H        1 UNL1     0.0524
     122 H         -4.107849   3.45585   3.352465 H        1 UNL1     0.0524
     123 H         -3.896393   1.69044   3.463634 H        1 UNL1     0.0524
@<TRIPOS>BOND
     1     1     2    1
     2     1    42    1
     3     2     3    2
     4     3     4    1
     5     4     5    2
     6     5     7    1
     7     6    75    1
     8     6    76    1
     9     6    77    1
    10     7     9   am
    11     9    10    1
    12    10    11    2
    13    10    43    1
    14    11    14    1
    15    11    15    1
    16    12    13   ar
    17    12    27   ar
    18    12    43    1
    19    13    14    1
    20    13    30   ar
    21    14    17    2
    22    15    16    1
    23    16    17    1
    24    16    18    1
    25    16    22    1
    26    18    19    1
    27    19    20    1
    28    20    21    1
    29    21    22    1
    30    23    24    1
    31    23    88    1
    32    23    89    1
    33    24    25    1
    34    24    26    1
    35    24    90    1
    36    25    91    1
    37    25    92    1
    38    25    93    1
    39    26    94    1
    40    26    95    1
    41    26    96    1
    42    27    28   ar
    43    28    29   ar
    44    29    30   ar
    45    29    31    1
    46    30    33    1
    47    31    32    1
    48    32    33    1
    49    32    35    1
    50    34    97    1
    51    34    98    1
    52    34    99    1
    53    35    61    1
    54    36    37    1
    55    36    60    1
    56    37    38    1
    57    38    39    1
    58    39    40    1
    59    40    41    1
    60    41    42    1
    61    45   100    1
    62    47   101    1
    63    47   102    1
    64    47   103    1
    65    48   104    1
    66    49   105    1
    67    49   106    1
    68    49   107    1
    69    50   108    1
    70    51    59    1
    71    52   109    1
    72    52   110    1
    73    52   111    1
    74    53    54    1
    75    54    55    2
    76    54    56    1
    77    56   112    1
    78    56   113    1
    79    56   114    1
    80    57   115    1
    81    57   116    1
    82    57   117    1
    83    58   118    1
    84    58   119    1
    85    58   120    1
    86    59   121    1
    87    59   122    1
    88    59   123    1
    89    60    61    2
    90     1    47    1
    91     1    62    1
    92     2    63    1
    93     3    64    1
    94     4    65    1
    95     5     6    1
    96     7     8    2
    97     9    78    1
    98    15    79    1
    99    18    80    1
   100    18    81    1
   101    19    82    1
   102    19    83    1
   103    20    23    1
   104    21    84    1
   105    21    85    1
   106    22    86    1
   107    22    87    1
   108    27    45    1
   109    28    34    1
   110    32    58    1
   111    33    46    2
   112    36    51    1
   113    36    66    1
   114    37    52    1
   115    37    67    1
   116    38    53    1
   117    38    68    1
   118    42    48    1
   119    42    72    1
   120    43    44    2
   121    60    73    1
   122    61    74    1
   123    39    69    1
   124    39    57    1
   125    40    70    1
   126    40    50    1
   127    41    71    1
   128    41    49    1
