@<TRIPOS>MOLECULE
*****
 123 128 0 0 0
SMALL
GASTEIGER

@<TRIPOS>ATOM
     1 C         0.648624   4.006511   -1.223993 C.3        1 UNL1     0.0009
     2 C         -0.126914   4.891407   -2.656661 C.2        1 UNL1     -0.0787
     3 C         -0.035543   5.436702   -3.994701 C.2        1 UNL1     -0.0649
     4 C         -1.274228   6.114037   -4.92917 C.2        1 UNL1     -0.0542
     5 C         -1.685462   6.453123   -6.241795 C.2        1 UNL1     0.0115
     6 C         -1.208138   6.580742   -7.714615 C.3        1 UNL1     -0.0348
     7 C         -3.242947   6.721848   -6.522893 C.2        1 UNL1     0.2441
     8 O         -3.714171   7.844837   -6.638519 O.2        1 UNL1     -0.2702
     9 N         -3.98107   5.582014   -6.886354 N.am        1 UNL1     -0.2772
     10 C         -4.461011   4.943345   -5.766051 C.2        1 UNL1     0.1049
     11 C         -3.621361   4.125217   -5.157876 C.2        1 UNL1     0.0801
     12 C         -5.679392   5.350498   -3.619633 C.ar        1 UNL1     0.0753
     13 C         -4.625565   4.627404   -2.97528 C.ar        1 UNL1     0.0305
     14 C         -3.631432   3.879092   -3.741296 C.2        1 UNL1     0.0924
     15 N         -2.434218   3.645383   -5.566504 N.pl3        1 UNL1     -0.3170
     16 C         -2.006279   2.659039   -4.610342 C.3        1 UNL1     0.1275
     17 N         -2.656323   3.081175   -3.315364 N.2        1 UNL1     -0.2557
     18 C         -2.659992   1.337038   -5.001079 C.3        1 UNL1     0.0016
     19 C         -2.289421   1.01804   -6.4407 C.3        1 UNL1     0.0026
     20 N         -0.838984   0.935775   -6.543128 N.3        1 UNL1     -0.3018
     21 C         -0.117145   2.140769   -6.129234 C.3        1 UNL1     0.0026
     22 C         -0.500661   2.440065   -4.678981 C.3        1 UNL1     0.0016
     23 C         -0.394222   0.347237   -7.790707 C.3        1 UNL1     0.0012
     24 C         -0.721201   -1.153988   -7.824811 C.3        1 UNL1     -0.0339
     25 C         0.352011   -1.946057   -8.589599 C.3        1 UNL1     -0.0615
     26 C         -0.902862   -1.679648   -6.411496 C.3        1 UNL1     -0.0615
     27 C         -6.69179   5.960415   -2.882633 C.ar        1 UNL1     0.1347
     28 C         -6.778192   5.882567   -1.504038 C.ar        1 UNL1     0.0342
     29 C         -5.703294   5.207162   -0.887932 C.ar        1 UNL1     0.1435
     30 C         -4.663037   4.622214   -1.611065 C.ar        1 UNL1     0.0774
     31 O         -5.698814   4.952043   0.43868 O.3        1 UNL1     -0.4436
     32 C         -4.748645   3.8881   0.600169 C.3        1 UNL1     0.3143
     33 C         -3.837726   3.983862   -0.607005 C.2        1 UNL1     0.2504
     34 C         -7.960024   6.29242   -0.670135 C.3        1 UNL1     -0.0327
     35 O         -3.951901   4.199369   1.74976 O.2        1 UNL1     -0.4528
     36 C         -2.910457   0.862255   3.228662 C.3        1 UNL1     0.0854
     37 C         -2.123459   -0.325285   2.551975 C.3        1 UNL1     0.0236
     38 C         -0.798917   -0.787755   3.328798 C.3        1 UNL1     0.1131
     39 C         0.278101   0.289708   3.754681 C.3        1 UNL1     0.0200
     40 C         0.730398   1.496555   2.695726 C.3        1 UNL1     0.0661
     41 C         1.20214   1.276491   1.081216 C.3        1 UNL1     0.0091
     42 C         0.984015   2.362767   -0.380916 C.3        1 UNL1     0.0661
     43 C         -5.707896   5.353795   -5.103357 C.2        1 UNL1     0.2131
     44 O         -6.711498   5.574192   -5.756768 O.2        1 UNL1     -0.2851
     45 O         -7.654503   6.683281   -3.584123 O.3        1 UNL1     -0.5056
     46 O         -2.683625   3.632688   -0.70987 O.2        1 UNL1     -0.2836
     47 C         1.620131   4.952285   -0.467907 C.3        1 UNL1     -0.0566
     48 O         2.39077   2.230849   -0.831198 O.3        1 UNL1     -0.3909
     49 C         0.828025   -0.124097   0.650072 C.3        1 UNL1     -0.0577
     50 O         -0.140361   2.60519   2.79785 O.3        1 UNL1     -0.3910
     51 O         -2.270894   1.481347   4.321875 O.3        1 UNL1     -0.3753
     52 C         -2.18912   -0.252292   0.991427 C.3        1 UNL1     -0.0564
     53 O         -0.270735   -2.117634   2.876282 O.3        1 UNL1     -0.4608
     54 C         1.053798   -2.448714   2.758269 C.2        1 UNL1     0.3042
     55 O         1.716659   -2.519592   1.724136 O.2        1 UNL1     -0.2512
     56 C         1.733813   -2.687283   4.076365 C.3        1 UNL1     0.0332
     57 C         -0.025893   0.702823   5.269639 C.3        1 UNL1     -0.0567
     58 C         -5.550927   2.568689   0.516331 C.3        1 UNL1     0.0210
     59 C         -2.855368   1.204259   5.593676 C.3        1 UNL1     0.0372
     60 C         -3.32573   1.950302   2.301914 C.2        1 UNL1     -0.0208
     61 C         -3.253291   3.275195   2.436661 C.2        1 UNL1     0.0882
     62 H         -0.311756   4.058054   -0.696996 H        1 UNL1     0.0365
     63 H         -1.106516   5.134383   -2.239753 H        1 UNL1     0.0576
     64 H         0.858656   5.302826   -4.607559 H        1 UNL1     0.0615
     65 H         -2.082444   6.277876   -4.211237 H        1 UNL1     0.0622
     66 H         -3.841232   0.404701   3.592462 H        1 UNL1     0.0645
     67 H         -2.780501   -1.200174   2.69835 H        1 UNL1     0.0362
     68 H         -1.250176   -1.137067   4.270004 H        1 UNL1     0.0741
     69 H         1.214508   -0.21412   3.953946 H        1 UNL1     0.0359
     70 H         1.666413   1.83446   3.180244 H        1 UNL1     0.0600
     71 H         2.297701   1.178064   1.211658 H        1 UNL1     0.0348
     72 H         0.859921   3.010334   0.499183 H        1 UNL1     0.0602
     73 H         -3.848894   1.52833   1.480034 H        1 UNL1     0.0628
     74 H         -2.687756   3.785663   3.216937 H        1 UNL1     0.1022
     75 H         -0.240297   7.135394   -7.766376 H        1 UNL1     0.0279
     76 H         -0.974051   5.652447   -8.230892 H        1 UNL1     0.0279
     77 H         -1.861193   7.227424   -8.318786 H        1 UNL1     0.0279
     78 H         -3.377572   4.926129   -7.377966 H        1 UNL1     0.1553
     79 H         -2.135906   3.639187   -6.524578 H        1 UNL1     0.1484
     80 H         -2.317056   0.552348   -4.315936 H        1 UNL1     0.0317
     81 H         -3.748684   1.392322   -4.894564 H        1 UNL1     0.0317
     82 H         -2.693927   1.764379   -7.140174 H        1 UNL1     0.0428
     83 H         -2.767342   0.072649   -6.699308 H        1 UNL1     0.0428
     84 H         0.971164   2.025523   -6.13985 H        1 UNL1     0.0428
     85 H         -0.30293   2.982761   -6.8103 H        1 UNL1     0.0428
     86 H         0.14237   3.242901   -4.369217 H        1 UNL1     0.0317
     87 H         -0.197482   1.607959   -4.03185 H        1 UNL1     0.0317
     88 H         -0.930987   0.840569   -8.611561 H        1 UNL1     0.0429
     89 H         0.67667   0.52309   -7.955146 H        1 UNL1     0.0429
     90 H         -1.685866   -1.300208   -8.325066 H        1 UNL1     0.0308
     91 H         1.359466   -1.647973   -8.284177 H        1 UNL1     0.0233
     92 H         0.230312   -3.019303   -8.42546 H        1 UNL1     0.0233
     93 H         0.290139   -1.793595   -9.673925 H        1 UNL1     0.0233
     94 H         -0.748606   -2.76387   -6.389036 H        1 UNL1     0.0233
     95 H         -0.167538   -1.220638   -5.744734 H        1 UNL1     0.0233
     96 H         -1.905827   -1.465359   -6.031879 H        1 UNL1     0.0233
     97 H         -7.802879   6.092199   0.385539 H        1 UNL1     0.0280
     98 H         -8.165902   7.368211   -0.744592 H        1 UNL1     0.0280
     99 H         -8.853623   5.73648   -0.998018 H        1 UNL1     0.0280
     100 H         -7.306592   7.294528   -4.209389 H        1 UNL1     0.2922
     101 H         1.160186   5.284359   0.462595 H        1 UNL1     0.0236
     102 H         1.963716   5.788742   -1.075586 H        1 UNL1     0.0236
     103 H         2.542335   4.434698   -0.155117 H        1 UNL1     0.0236
     104 H         2.821054   1.562667   -0.262552 H        1 UNL1     0.2098
     105 H         1.606446   -0.647999   0.101074 H        1 UNL1     0.0234
     106 H         0.436687   -0.756559   1.446798 H        1 UNL1     0.0234
     107 H         -0.0   0.0   0.0 H        1 UNL1     0.0234
     108 H         0.189424   3.290501   2.185184 H        1 UNL1     0.2098
     109 H         -3.219774   -0.31426   0.615096 H        1 UNL1     0.0234
     110 H         -1.702301   0.639125   0.581393 H        1 UNL1     0.0234
     111 H         -1.651332   -1.088004   0.524186 H        1 UNL1     0.0234
     112 H         2.78918   -2.925665   3.912896 H        1 UNL1     0.0342
     113 H         1.624675   -1.84077   4.752639 H        1 UNL1     0.0342
     114 H         1.261983   -3.557366   4.553332 H        1 UNL1     0.0342
     115 H         0.895666   0.92473   5.825223 H        1 UNL1     0.0234
     116 H         -0.686065   1.566585   5.370323 H        1 UNL1     0.0234
     117 H         -0.446281   -0.119394   5.873936 H        1 UNL1     0.0234
     118 H         -5.68541   2.101532   1.507636 H        1 UNL1     0.0309
     119 H         -6.529912   2.690549   0.042051 H        1 UNL1     0.0309
     120 H         -5.029589   1.795529   -0.058593 H        1 UNL1     0.0309
     121 H         -2.615229   2.036192   6.255172 H        1 UNL1     0.0524
     122 H         -3.954241   1.12816   5.541462 H        1 UNL1     0.0524
     123 H         -2.456532   0.27768   5.996758 H        1 UNL1     0.0524
@<TRIPOS>BOND
     1     1     2    1
     2     1    42    1
     3     2     3    2
     4     3     4    1
     5     4     5    2
     6     5     7    1
     7     6    75    1
     8     6    76    1
     9     6    77    1
    10     7     9   am
    11     9    10    1
    12    10    11    2
    13    10    43    1
    14    11    14    1
    15    11    15    1
    16    12    13   ar
    17    12    27   ar
    18    12    43    1
    19    13    14    1
    20    13    30   ar
    21    14    17    2
    22    15    16    1
    23    16    17    1
    24    16    18    1
    25    16    22    1
    26    18    19    1
    27    19    20    1
    28    20    21    1
    29    21    22    1
    30    23    24    1
    31    23    88    1
    32    23    89    1
    33    24    25    1
    34    24    26    1
    35    24    90    1
    36    25    91    1
    37    25    92    1
    38    25    93    1
    39    26    94    1
    40    26    95    1
    41    26    96    1
    42    27    28   ar
    43    28    29   ar
    44    29    30   ar
    45    29    31    1
    46    30    33    1
    47    31    32    1
    48    32    33    1
    49    32    35    1
    50    34    97    1
    51    34    98    1
    52    34    99    1
    53    35    61    1
    54    36    37    1
    55    36    60    1
    56    37    38    1
    57    38    39    1
    58    39    40    1
    59    40    41    1
    60    41    42    1
    61    45   100    1
    62    47   101    1
    63    47   102    1
    64    47   103    1
    65    48   104    1
    66    49   105    1
    67    49   106    1
    68    49   107    1
    69    50   108    1
    70    51    59    1
    71    52   109    1
    72    52   110    1
    73    52   111    1
    74    53    54    1
    75    54    55    2
    76    54    56    1
    77    56   112    1
    78    56   113    1
    79    56   114    1
    80    57   115    1
    81    57   116    1
    82    57   117    1
    83    58   118    1
    84    58   119    1
    85    58   120    1
    86    59   121    1
    87    59   122    1
    88    59   123    1
    89    60    61    2
    90     1    47    1
    91     1    62    1
    92     2    63    1
    93     3    64    1
    94     4    65    1
    95     5     6    1
    96     7     8    2
    97     9    78    1
    98    15    79    1
    99    18    80    1
   100    18    81    1
   101    19    82    1
   102    19    83    1
   103    20    23    1
   104    21    84    1
   105    21    85    1
   106    22    86    1
   107    22    87    1
   108    27    45    1
   109    28    34    1
   110    32    58    1
   111    33    46    2
   112    36    51    1
   113    36    66    1
   114    37    52    1
   115    37    67    1
   116    38    53    1
   117    38    68    1
   118    42    48    1
   119    42    72    1
   120    43    44    2
   121    60    73    1
   122    61    74    1
   123    39    69    1
   124    39    57    1
   125    40    70    1
   126    40    50    1
   127    41    71    1
   128    41    49    1
