@<TRIPOS>MOLECULE
*****
 123 128 0 0 0
SMALL
GASTEIGER

@<TRIPOS>ATOM
     1 C         5.036686   2.056289   0.644381 C.3        1 UNL1     0.0009
     2 C         6.42253   2.997768   -0.149401 C.2        1 UNL1     -0.0787
     3 C         7.717991   3.019564   -0.795431 C.2        1 UNL1     -0.0649
     4 C         8.513096   4.343975   -1.488324 C.2        1 UNL1     -0.0542
     5 C         9.522686   4.746681   -2.396967 C.2        1 UNL1     0.0115
     6 C         10.706818   4.239539   -3.265277 C.3        1 UNL1     -0.0348
     7 C         9.517354   6.255347   -2.945501 C.2        1 UNL1     0.2441
     8 O         10.272587   7.119818   -2.522609 O.2        1 UNL1     -0.2702
     9 N         8.771527   6.452109   -4.120737 N.am        1 UNL1     -0.2772
     10 C         7.459211   6.731409   -3.815546 C.2        1 UNL1     0.1049
     11 C         6.68316   5.690107   -3.575428 C.2        1 UNL1     0.0801
     12 C         6.024773   8.182784   -2.368746 C.ar        1 UNL1     0.0753
     13 C         5.344424   6.98583   -1.977546 C.ar        1 UNL1     0.0305
     14 C         5.567075   5.718211   -2.66937 C.2        1 UNL1     0.0924
     15 N         6.905915   4.380842   -3.782149 N.pl3        1 UNL1     -0.3170
     16 C         5.679184   3.678604   -3.513364 C.3        1 UNL1     0.1275
     17 N         4.959397   4.545964   -2.509712 N.2        1 UNL1     -0.2557
     18 C         4.843332   3.724074   -4.788898 C.3        1 UNL1     0.0016
     19 C         5.663477   3.141364   -5.928811 C.3        1 UNL1     0.0026
     20 N         6.028795   1.772801   -5.590276 N.3        1 UNL1     -0.3018
     21 C         6.783254   1.62075   -4.344466 C.3        1 UNL1     0.0026
     22 C         5.938952   2.208415   -3.212344 C.3        1 UNL1     0.0016
     23 C         6.549161   1.031661   -6.7219 C.3        1 UNL1     0.0012
     24 C         5.430129   0.736574   -7.733061 C.3        1 UNL1     -0.0339
     25 C         5.636069   1.515078   -9.042861 C.3        1 UNL1     -0.0615
     26 C         5.333166   -0.758741   -7.980877 C.3        1 UNL1     -0.0615
     27 C         5.719033   9.410209   -1.785593 C.ar        1 UNL1     0.1347
     28 C         4.728418   9.571399   -0.833358 C.ar        1 UNL1     0.0342
     29 C         4.105691   8.37164   -0.428446 C.ar        1 UNL1     0.1435
     30 C         4.426717   7.129686   -0.977729 C.ar        1 UNL1     0.0774
     31 O         3.046487   8.37552   0.410051 O.3        1 UNL1     -0.4436
     32 C         2.41999   7.099633   0.20884 C.3        1 UNL1     0.3143
     33 C         3.511688   6.204744   -0.342144 C.2        1 UNL1     0.2504
     34 C         4.175408   10.883011   -0.349672 C.3        1 UNL1     -0.0327
     35 O         2.072896   6.586984   1.501113 O.2        1 UNL1     -0.4528
     36 C         -1.01237   4.439472   0.974414 C.3        1 UNL1     0.0854
     37 C         -1.210317   3.19568   0.025035 C.3        1 UNL1     0.0236
     38 C         -1.727884   1.864455   0.754218 C.3        1 UNL1     0.1131
     39 C         -0.984488   1.337987   2.047455 C.3        1 UNL1     0.0200
     40 C         0.682113   1.312925   2.112668 C.3        1 UNL1     0.0661
     41 C         1.713013   0.662284   0.933041 C.3        1 UNL1     0.0091
     42 C         3.397434   1.170445   0.413523 C.3        1 UNL1     0.0661
     43 C         7.004236   8.088802   -3.479637 C.2        1 UNL1     0.2131
     44 O         7.347452   9.040928   -4.156687 O.2        1 UNL1     -0.2851
     45 O         6.459453   10.51899   -2.190343 O.3        1 UNL1     -0.5056
     46 O         3.614511   5.001443   -0.256419 O.2        1 UNL1     -0.2836
     47 C         5.442086   1.601522   2.072253 C.3        1 UNL1     -0.0566
     48 O         3.947659   -0.206154   0.450195 O.3        1 UNL1     -0.3909
     49 C         0.916932   0.417526   -0.329434 C.3        1 UNL1     -0.0577
     50 O         1.184829   2.555297   2.561568 O.3        1 UNL1     -0.3910
     51 O         -1.142941   4.187409   2.3553 O.3        1 UNL1     -0.3753
     52 C         -0.139726   3.156895   -1.113947 C.3        1 UNL1     -0.0564
     53 O         -2.23861   0.819832   -0.194597 O.3        1 UNL1     -0.4608
     54 C         -2.378089   -0.513275   0.090534 C.2        1 UNL1     0.3042
     55 O         -1.638097   -1.432774   -0.256989 O.2        1 UNL1     -0.2512
     56 C         -3.552793   -0.8193   0.975482 C.3        1 UNL1     0.0332
     57 C         -1.771734   1.903004   3.319923 C.3        1 UNL1     -0.0567
     58 C         1.345991   7.307232   -0.884302 C.3        1 UNL1     0.0210
     59 C         -2.331112   4.707641   2.949837 C.3        1 UNL1     0.0372
     60 C         0.26987   5.172601   0.791266 C.2        1 UNL1     -0.0208
     61 C         1.135069   5.639442   1.692506 C.2        1 UNL1     0.0882
     62 H         4.488166   2.998866   0.760084 H        1 UNL1     0.0365
     63 H         6.077679   4.024378   -0.009333 H        1 UNL1     0.0576
     64 H         8.24902   2.098101   -1.044473 H        1 UNL1     0.0615
     65 H         7.954637   5.207131   -1.116077 H        1 UNL1     0.0622
     66 H         -1.805364   5.140966   0.679264 H        1 UNL1     0.0645
     67 H         -2.087091   3.464338   -0.589498 H        1 UNL1     0.0362
     68 H         -2.709776   2.21688   1.105224 H        1 UNL1     0.0741
     69 H         -1.243363   0.298524   2.19881 H        1 UNL1     0.0359
     70 H         0.82912   0.628877   2.970297 H        1 UNL1     0.0600
     71 H         1.825454   -0.368737   1.322027 H        1 UNL1     0.0348
     72 H         3.241154   1.61124   1.408807 H        1 UNL1     0.0602
     73 H         0.388387   5.41799   -0.234886 H        1 UNL1     0.0628
     74 H         1.117109   5.386739   2.753193 H        1 UNL1     0.1022
     75 H         11.509433   3.807819   -2.61994 H        1 UNL1     0.0279
     76 H         10.491347   3.422   -3.94958 H        1 UNL1     0.0279
     77 H         11.247165   5.056135   -3.766174 H        1 UNL1     0.0279
     78 H         8.781769   5.600958   -4.678871 H        1 UNL1     0.1553
     79 H         7.610127   4.026945   -4.403257 H        1 UNL1     0.1484
     80 H         3.918112   3.156949   -4.630461 H        1 UNL1     0.0317
     81 H         4.5449   4.751188   -5.024751 H        1 UNL1     0.0317
     82 H         6.555992   3.748565   -6.140081 H        1 UNL1     0.0428
     83 H         5.049376   3.185138   -6.828819 H        1 UNL1     0.0428
     84 H         6.975585   0.578201   -4.072601 H        1 UNL1     0.0428
     85 H         7.78481   2.06693   -4.416058 H        1 UNL1     0.0428
     86 H         6.458797   1.961502   -2.30527 H        1 UNL1     0.0317
     87 H         4.995672   1.65589   -3.122715 H        1 UNL1     0.0317
     88 H         7.310865   1.650297   -7.214232 H        1 UNL1     0.0429
     89 H         7.045084   0.107192   -6.399111 H        1 UNL1     0.0429
     90 H         4.467212   1.031362   -7.29935 H        1 UNL1     0.0308
     91 H         6.671318   1.443377   -9.38959 H        1 UNL1     0.0233
     92 H         4.969652   1.140848   -9.823534 H        1 UNL1     0.0233
     93 H         5.410267   2.582784   -8.933994 H        1 UNL1     0.0233
     94 H         4.843121   -0.951415   -8.941381 H        1 UNL1     0.0233
     95 H         6.334461   -1.196788   -8.019413 H        1 UNL1     0.0233
     96 H         4.759825   -1.25724   -7.194273 H        1 UNL1     0.0233
     97 H         3.104563   10.958871   -0.513284 H        1 UNL1     0.0280
     98 H         4.325283   11.022798   0.72887 H        1 UNL1     0.0280
     99 H         4.666521   11.71106   -0.88655 H        1 UNL1     0.0280
     100 H         5.943348   11.270895   -2.422502 H        1 UNL1     0.2922
     101 H         4.637634   1.01306   2.512963 H        1 UNL1     0.0236
     102 H         5.744456   2.427278   2.715435 H        1 UNL1     0.0236
     103 H         6.310966   0.922494   2.059548 H        1 UNL1     0.0236
     104 H         4.283654   -0.365522   1.353898 H        1 UNL1     0.2098
     105 H         0.688434   1.315787   -0.897526 H        1 UNL1     0.0234
     106 H         1.327816   -0.349922   -0.985272 H        1 UNL1     0.0234
     107 H         0.0   -0.0   0.0 H        1 UNL1     0.0234
     108 H         1.086312   3.190773   1.826563 H        1 UNL1     0.2098
     109 H         -0.186578   4.045172   -1.759299 H        1 UNL1     0.0234
     110 H         0.881886   3.029007   -0.740184 H        1 UNL1     0.0234
     111 H         -0.288909   2.297021   -1.780511 H        1 UNL1     0.0234
     112 H         -4.085181   -1.697154   0.596956 H        1 UNL1     0.0342
     113 H         -3.257506   -0.959285   2.014257 H        1 UNL1     0.0342
     114 H         -4.242558   0.035079   0.937743 H        1 UNL1     0.0342
     115 H         -2.845485   1.675518   3.269971 H        1 UNL1     0.0234
     116 H         -1.400349   1.526239   4.274999 H        1 UNL1     0.0234
     117 H         -1.78964   3.005215   3.372377 H        1 UNL1     0.0234
     118 H         0.3218   7.230007   -0.479239 H        1 UNL1     0.0309
     119 H         1.450725   8.259315   -1.414181 H        1 UNL1     0.0309
     120 H         1.372855   6.527594   -1.653425 H        1 UNL1     0.0309
     121 H         -2.125795   4.872405   4.007218 H        1 UNL1     0.0524
     122 H         -2.62727   5.676463   2.514278 H        1 UNL1     0.0524
     123 H         -3.1497   4.003237   2.832275 H        1 UNL1     0.0524
@<TRIPOS>BOND
     1     1     2    1
     2     1    42    1
     3     2     3    2
     4     3     4    1
     5     4     5    2
     6     5     7    1
     7     6    75    1
     8     6    76    1
     9     6    77    1
    10     7     9   am
    11     9    10    1
    12    10    11    2
    13    10    43    1
    14    11    14    1
    15    11    15    1
    16    12    13   ar
    17    12    27   ar
    18    12    43    1
    19    13    14    1
    20    13    30   ar
    21    14    17    2
    22    15    16    1
    23    16    17    1
    24    16    18    1
    25    16    22    1
    26    18    19    1
    27    19    20    1
    28    20    21    1
    29    21    22    1
    30    23    24    1
    31    23    88    1
    32    23    89    1
    33    24    25    1
    34    24    26    1
    35    24    90    1
    36    25    91    1
    37    25    92    1
    38    25    93    1
    39    26    94    1
    40    26    95    1
    41    26    96    1
    42    27    28   ar
    43    28    29   ar
    44    29    30   ar
    45    29    31    1
    46    30    33    1
    47    31    32    1
    48    32    33    1
    49    32    35    1
    50    34    97    1
    51    34    98    1
    52    34    99    1
    53    35    61    1
    54    36    37    1
    55    36    60    1
    56    37    38    1
    57    38    39    1
    58    39    40    1
    59    40    41    1
    60    41    42    1
    61    45   100    1
    62    47   101    1
    63    47   102    1
    64    47   103    1
    65    48   104    1
    66    49   105    1
    67    49   106    1
    68    49   107    1
    69    50   108    1
    70    51    59    1
    71    52   109    1
    72    52   110    1
    73    52   111    1
    74    53    54    1
    75    54    55    2
    76    54    56    1
    77    56   112    1
    78    56   113    1
    79    56   114    1
    80    57   115    1
    81    57   116    1
    82    57   117    1
    83    58   118    1
    84    58   119    1
    85    58   120    1
    86    59   121    1
    87    59   122    1
    88    59   123    1
    89    60    61    2
    90     1    47    1
    91     1    62    1
    92     2    63    1
    93     3    64    1
    94     4    65    1
    95     5     6    1
    96     7     8    2
    97     9    78    1
    98    15    79    1
    99    18    80    1
   100    18    81    1
   101    19    82    1
   102    19    83    1
   103    20    23    1
   104    21    84    1
   105    21    85    1
   106    22    86    1
   107    22    87    1
   108    27    45    1
   109    28    34    1
   110    32    58    1
   111    33    46    2
   112    36    51    1
   113    36    66    1
   114    37    52    1
   115    37    67    1
   116    38    53    1
   117    38    68    1
   118    42    48    1
   119    42    72    1
   120    43    44    2
   121    60    73    1
   122    61    74    1
   123    39    69    1
   124    39    57    1
   125    40    70    1
   126    40    50    1
   127    41    71    1
   128    41    49    1
