@<TRIPOS>MOLECULE
*****
 123 128 0 0 0
SMALL
GASTEIGER

@<TRIPOS>ATOM
     1 C         -0.551345   -5.309557   1.231327 C.3        1 UNL1     0.0009
     2 C         -1.088772   -6.537971   2.511642 C.2        1 UNL1     -0.0787
     3 C         -0.764432   -7.492747   3.550513 C.2        1 UNL1     -0.0649
     4 C         -1.830618   -8.323335   4.570183 C.2        1 UNL1     -0.0542
     5 C         -1.955271   -9.031051   5.791116 C.2        1 UNL1     0.0115
     6 C         -1.156596   -9.670214   6.960266 C.3        1 UNL1     -0.0348
     7 C         -3.416094   -9.237009   6.424019 C.2        1 UNL1     0.2441
     8 O         -4.032904   -10.290514   6.34529 O.2        1 UNL1     -0.2702
     9 N         -3.829208   -8.215397   7.296829 N.am        1 UNL1     -0.2772
     10 C         -4.453195   -7.208653   6.596523 C.2        1 UNL1     0.1049
     11 C         -3.661318   -6.315627   6.031138 C.2        1 UNL1     0.0801
     12 C         -6.219005   -6.789551   4.875011 C.ar        1 UNL1     0.0753
     13 C         -5.248743   -5.993341   4.187079 C.ar        1 UNL1     0.0305
     14 C         -3.980141   -5.624474   4.811287 C.2        1 UNL1     0.0924
     15 N         -2.344763   -6.101143   6.19608 N.pl3        1 UNL1     -0.3170
     16 C         -2.002178   -4.900526   5.480953 C.3        1 UNL1     0.1275
     17 N         -3.017437   -4.821476   4.367076 N.2        1 UNL1     -0.2557
     18 C         -2.296194   -3.723622   6.406239 C.3        1 UNL1     0.0016
     19 C         -1.529251   -3.921846   7.703966 C.3        1 UNL1     0.0026
     20 N         -0.107667   -4.006152   7.398974 N.3        1 UNL1     -0.3018
     21 C         0.265979   -5.071382   6.466213 C.3        1 UNL1     0.0026
     22 C         -0.512489   -4.850008   5.168185 C.3        1 UNL1     0.0016
     23 C         0.729393   -3.8949   8.576937 C.3        1 UNL1     0.0012
     24 C         2.102112   -4.538253   8.324955 C.3        1 UNL1     -0.0339
     25 C         2.698757   -5.115427   9.619151 C.3        1 UNL1     -0.0615
     26 C         1.990416   -5.595896   7.240661 C.3        1 UNL1     -0.0615
     27 C         -7.473552   -7.035817   4.322215 C.ar        1 UNL1     0.1347
     28 C         -7.885112   -6.508706   3.111091 C.ar        1 UNL1     0.0342
     29 C         -6.896105   -5.76843   2.429167 C.ar        1 UNL1     0.1435
     30 C         -5.622841   -5.543669   2.95405 C.ar        1 UNL1     0.0774
     31 O         -7.177114   -5.099207   1.289789 O.3        1 UNL1     -0.4436
     32 C         -6.125805   -4.128968   1.170388 C.3        1 UNL1     0.3143
     33 C         -4.974575   -4.690618   1.979975 C.2        1 UNL1     0.2504
     34 C         -9.290127   -6.520118   2.576391 C.3        1 UNL1     -0.0327
     35 O         -5.707263   -4.120858   -0.200017 O.2        1 UNL1     -0.4528
     36 C         -4.498557   -0.59101   -0.898085 C.3        1 UNL1     0.0854
     37 C         -3.372566   0.238902   -0.169447 C.3        1 UNL1     0.0236
     38 C         -2.223012   0.808451   -1.131676 C.3        1 UNL1     0.1131
     39 C         -1.491666   -0.164267   -2.142232 C.3        1 UNL1     0.0200
     40 C         -1.008781   -1.683946   -1.652501 C.3        1 UNL1     0.0661
     41 C         -0.11929   -2.040938   -0.252868 C.3        1 UNL1     0.0091
     42 C         -0.15366   -3.518036   0.834515 C.3        1 UNL1     0.0661
     43 C         -5.8777   -7.270261   6.236881 C.2        1 UNL1     0.2131
     44 O         -6.709822   -7.600303   7.062339 O.2        1 UNL1     -0.2851
     45 O         -8.342765   -7.858383   5.035861 O.3        1 UNL1     -0.5056
     46 O         -3.78808   -4.49546   1.838572 O.2        1 UNL1     -0.2836
     47 C         0.020426   -6.042007   -0.012287 C.3        1 UNL1     -0.0566
     48 O         1.321527   -3.664257   0.874008 O.3        1 UNL1     -0.3909
     49 C         -0.123144   -0.827878   0.65044 C.3        1 UNL1     -0.0577
     50 O         -2.057838   -2.618026   -1.809653 O.3        1 UNL1     -0.3910
     51 O         -4.269636   -0.87718   -2.259383 O.3        1 UNL1     -0.3753
     52 C         -3.059756   -0.329028   1.253422 C.3        1 UNL1     -0.0564
     53 O         -1.374399   1.867949   -0.491641 O.3        1 UNL1     -0.4608
     54 C         -0.233807   1.642483   0.233717 C.2        1 UNL1     0.3042
     55 O         0.70751   0.908117   -0.063717 O.2        1 UNL1     -0.2512
     56 C         -0.154624   2.451674   1.496909 C.3        1 UNL1     0.0332
     57 C         -2.230409   -0.036228   -3.555044 C.3        1 UNL1     -0.0567
     58 C         -6.638135   -2.842012   1.857987 C.3        1 UNL1     0.0210
     59 C         -5.444857   -1.155013   -3.019337 C.3        1 UNL1     0.0372
     60 C         -4.854204   -1.87904   -0.242604 C.2        1 UNL1     -0.0208
     61 C         -5.050751   -3.089947   -0.765882 C.2        1 UNL1     0.0882
     62 H         -1.606315   -5.102389   1.014918 H        1 UNL1     0.0365
     63 H         -2.168198   -6.545059   2.346541 H        1 UNL1     0.0576
     64 H         0.263268   -7.64427   3.888126 H        1 UNL1     0.0615
     65 H         -2.807792   -8.173664   4.10305 H        1 UNL1     0.0622
     66 H         -5.395571   0.040304   -0.828417 H        1 UNL1     0.0645
     67 H         -3.881651   1.168718   0.138503 H        1 UNL1     0.0362
     68 H         -2.825806   1.482113   -1.759641 H        1 UNL1     0.0741
     69 H         -0.560958   0.291774   -2.452422 H        1 UNL1     0.0359
     70 H         -0.296815   -1.928498   -2.463895 H        1 UNL1     0.0600
     71 H         0.909146   -2.003183   -0.662565 H        1 UNL1     0.0348
     72 H         -0.604187   -3.832255   -0.118169 H        1 UNL1     0.0602
     73 H         -5.074253   -1.701086   0.780704 H        1 UNL1     0.0628
     74 H         -4.79549   -3.36849   -1.788864 H        1 UNL1     0.1022
     75 H         -1.389436   -10.75909   7.044932 H        1 UNL1     0.0279
     76 H         -0.073058   -9.669048   6.865325 H        1 UNL1     0.0279
     77 H         -1.47788   -9.302543   7.945809 H        1 UNL1     0.0279
     78 H         -3.017166   -7.810152   7.757742 H        1 UNL1     0.1553
     79 H         -1.821209   -6.431799   6.985695 H        1 UNL1     0.1484
     80 H         -2.002492   -2.793129   5.905551 H        1 UNL1     0.0317
     81 H         -3.369466   -3.644664   6.609961 H        1 UNL1     0.0317
     82 H         -1.871324   -4.815388   8.246628 H        1 UNL1     0.0428
     83 H         -1.754628   -3.072556   8.349691 H        1 UNL1     0.0428
     84 H         1.325537   -5.062787   6.192215 H        1 UNL1     0.0428
     85 H         0.110931   -6.068475   6.901051 H        1 UNL1     0.0428
     86 H         -0.117584   -5.5631   4.468515 H        1 UNL1     0.0317
     87 H         -0.238901   -3.883623   4.727339 H        1 UNL1     0.0317
     88 H         0.877324   -2.828384   8.79131 H        1 UNL1     0.0429
     89 H         0.24121   -4.334949   9.456032 H        1 UNL1     0.0429
     90 H         2.788338   -3.778393   7.93263 H        1 UNL1     0.0308
     91 H         2.876995   -6.191223   9.529721 H        1 UNL1     0.0233
     92 H         3.637929   -4.615761   9.867944 H        1 UNL1     0.0233
     93 H         2.038436   -4.973116   10.483188 H        1 UNL1     0.0233
     94 H         1.010733   -5.536255   6.754347 H        1 UNL1     0.0233
     95 H         2.756191   -5.430972   6.477541 H        1 UNL1     0.0233
     96 H         2.11188   -6.602337   7.650895 H        1 UNL1     0.0233
     97 H         -10.02367   -6.676705   3.361646 H        1 UNL1     0.0280
     98 H         -9.559082   -5.568654   2.099279 H        1 UNL1     0.0280
     99 H         -9.397039   -7.330667   1.837016 H        1 UNL1     0.0280
     100 H         -9.212213   -7.911807   4.679731 H        1 UNL1     0.2922
     101 H         0.918748   -6.592632   0.266074 H        1 UNL1     0.0236
     102 H         0.193397   -5.378273   -0.858763 H        1 UNL1     0.0236
     103 H         -0.67172   -6.810672   -0.394756 H        1 UNL1     0.0236
     104 H         1.6935   -2.817573   1.189812 H        1 UNL1     0.2098
     105 H         -1.048021   -0.682259   1.202898 H        1 UNL1     0.0234
     106 H         0.732837   -0.757045   1.321414 H        1 UNL1     0.0234
     107 H         0.0   0.0   0.0 H        1 UNL1     0.0234
     108 H         -2.051393   -2.907298   -2.742417 H        1 UNL1     0.2098
     109 H         -2.521426   0.394795   1.88111 H        1 UNL1     0.0234
     110 H         -3.952246   -0.680292   1.7824 H        1 UNL1     0.0234
     111 H         -2.414291   -1.215991   1.202256 H        1 UNL1     0.0234
     112 H         0.739306   3.082488   1.479362 H        1 UNL1     0.0342
     113 H         -1.051028   3.048712   1.657683 H        1 UNL1     0.0342
     114 H         -0.060574   1.757761   2.343552 H        1 UNL1     0.0342
     115 H         -1.565429   0.373057   -4.32801 H        1 UNL1     0.0234
     116 H         -2.632235   -0.978462   -3.932907 H        1 UNL1     0.0234
     117 H         -3.045513   0.707766   -3.559431 H        1 UNL1     0.0234
     118 H         -6.224587   -2.72239   2.874685 H        1 UNL1     0.0309
     119 H         -6.434172   -1.935442   1.279427 H        1 UNL1     0.0309
     120 H         -7.720584   -2.857494   2.025833 H        1 UNL1     0.0309
     121 H         -5.505636   -0.413482   -3.815449 H        1 UNL1     0.0524
     122 H         -5.410632   -2.149732   -3.494099 H        1 UNL1     0.0524
     123 H         -6.324951   -1.097103   -2.385165 H        1 UNL1     0.0524
@<TRIPOS>BOND
     1     1     2    1
     2     1    42    1
     3     2     3    2
     4     3     4    1
     5     4     5    2
     6     5     7    1
     7     6    75    1
     8     6    76    1
     9     6    77    1
    10     7     9   am
    11     9    10    1
    12    10    11    2
    13    10    43    1
    14    11    14    1
    15    11    15    1
    16    12    13   ar
    17    12    27   ar
    18    12    43    1
    19    13    14    1
    20    13    30   ar
    21    14    17    2
    22    15    16    1
    23    16    17    1
    24    16    18    1
    25    16    22    1
    26    18    19    1
    27    19    20    1
    28    20    21    1
    29    21    22    1
    30    23    24    1
    31    23    88    1
    32    23    89    1
    33    24    25    1
    34    24    26    1
    35    24    90    1
    36    25    91    1
    37    25    92    1
    38    25    93    1
    39    26    94    1
    40    26    95    1
    41    26    96    1
    42    27    28   ar
    43    28    29   ar
    44    29    30   ar
    45    29    31    1
    46    30    33    1
    47    31    32    1
    48    32    33    1
    49    32    35    1
    50    34    97    1
    51    34    98    1
    52    34    99    1
    53    35    61    1
    54    36    37    1
    55    36    60    1
    56    37    38    1
    57    38    39    1
    58    39    40    1
    59    40    41    1
    60    41    42    1
    61    45   100    1
    62    47   101    1
    63    47   102    1
    64    47   103    1
    65    48   104    1
    66    49   105    1
    67    49   106    1
    68    49   107    1
    69    50   108    1
    70    51    59    1
    71    52   109    1
    72    52   110    1
    73    52   111    1
    74    53    54    1
    75    54    55    2
    76    54    56    1
    77    56   112    1
    78    56   113    1
    79    56   114    1
    80    57   115    1
    81    57   116    1
    82    57   117    1
    83    58   118    1
    84    58   119    1
    85    58   120    1
    86    59   121    1
    87    59   122    1
    88    59   123    1
    89    60    61    2
    90     1    47    1
    91     1    62    1
    92     2    63    1
    93     3    64    1
    94     4    65    1
    95     5     6    1
    96     7     8    2
    97     9    78    1
    98    15    79    1
    99    18    80    1
   100    18    81    1
   101    19    82    1
   102    19    83    1
   103    20    23    1
   104    21    84    1
   105    21    85    1
   106    22    86    1
   107    22    87    1
   108    27    45    1
   109    28    34    1
   110    32    58    1
   111    33    46    2
   112    36    51    1
   113    36    66    1
   114    37    52    1
   115    37    67    1
   116    38    53    1
   117    38    68    1
   118    42    48    1
   119    42    72    1
   120    43    44    2
   121    60    73    1
   122    61    74    1
   123    39    69    1
   124    39    57    1
   125    40    70    1
   126    40    50    1
   127    41    71    1
   128    41    49    1
