@<TRIPOS>MOLECULE
*****
 123 128 0 0 0
SMALL
GASTEIGER

@<TRIPOS>ATOM
     1 C         4.991325   1.794181   -0.642046 C.3        1 UNL1     0.0009
     2 C         6.477796   1.815146   -1.749748 C.2        1 UNL1     -0.0787
     3 C         7.735804   1.238203   -2.174717 C.2        1 UNL1     -0.0649
     4 C         8.703284   1.701392   -3.4846 C.2        1 UNL1     -0.0542
     5 C         9.729427   1.292798   -4.371821 C.2        1 UNL1     0.0115
     6 C         10.786131   0.187909   -4.647359 C.3        1 UNL1     -0.0348
     7 C         9.941318   2.103955   -5.740804 C.2        1 UNL1     0.2441
     8 O         10.838265   2.920788   -5.898268 O.2        1 UNL1     -0.2702
     9 N         9.192876   1.625945   -6.830526 N.am        1 UNL1     -0.2772
     10 C         7.953033   2.221971   -6.859892 C.2        1 UNL1     0.1049
     11 C         7.03219   1.688675   -6.077673 C.2        1 UNL1     0.0801
     12 C         6.819252   4.44859   -6.741388 C.ar        1 UNL1     0.0753
     13 C         5.973938   3.877024   -5.737713 C.ar        1 UNL1     0.0305
     14 C         5.968651   2.440789   -5.468915 C.2        1 UNL1     0.0924
     15 N         7.03836   0.524798   -5.405453 N.pl3        1 UNL1     -0.3170
     16 C         5.727177   0.334488   -4.844351 C.3        1 UNL1     0.1275
     17 N         5.190393   1.73234   -4.655686 N.2        1 UNL1     -0.2557
     18 C         4.862385   -0.309095   -5.923998 C.3        1 UNL1     0.0016
     19 C         5.53797   -1.589196   -6.38931 C.3        1 UNL1     0.0026
     20 N         5.695626   -2.477221   -5.245813 N.3        1 UNL1     -0.3018
     21 C         6.462227   -1.921993   -4.128489 C.3        1 UNL1     0.0026
     22 C         5.763295   -0.639473   -3.674033 C.3        1 UNL1     0.0016
     23 C         6.05075   -3.829742   -5.626888 C.3        1 UNL1     0.0012
     24 C         4.86267   -4.526912   -6.308192 C.3        1 UNL1     -0.0339
     25 C         4.831103   -6.029564   -5.984006 C.3        1 UNL1     -0.0615
     26 C         3.56387   -3.843356   -5.917485 C.3        1 UNL1     -0.0615
     27 C         6.732206   5.798003   -7.075494 C.ar        1 UNL1     0.1347
     28 C         5.815134   6.662658   -6.505055 C.ar        1 UNL1     0.0342
     29 C         5.026749   6.089163   -5.484901 C.ar        1 UNL1     0.1435
     30 C         5.127844   4.747651   -5.114298 C.ar        1 UNL1     0.0774
     31 O         4.013036   6.772094   -4.909576 O.3        1 UNL1     -0.4436
     32 C         3.186576   5.760755   -4.313732 C.3        1 UNL1     0.3143
     33 C         4.10276   4.571632   -4.106832 C.2        1 UNL1     0.2504
     34 C         5.493645   8.050078   -6.986523 C.3        1 UNL1     -0.0327
     35 O         2.811081   6.229447   -3.012739 O.2        1 UNL1     -0.4528
     36 C         -0.590992   4.704708   -2.299186 C.3        1 UNL1     0.0854
     37 C         -1.017106   3.18636   -2.275273 C.3        1 UNL1     0.0236
     38 C         -1.71043   2.700342   -0.91335 C.3        1 UNL1     0.1131
     39 C         -1.011913   3.000428   0.473838 C.3        1 UNL1     0.0200
     40 C         0.631237   2.779705   0.657621 C.3        1 UNL1     0.0661
     41 C         1.502651   1.392057   0.218666 C.3        1 UNL1     0.0091
     42 C         3.22571   1.210031   -0.384108 C.3        1 UNL1     0.0661
     43 C         7.730038   3.53748   -7.478006 C.2        1 UNL1     0.2131
     44 O         8.193574   3.791477   -8.574982 O.2        1 UNL1     -0.2851
     45 O         7.622426   6.284865   -8.030435 O.3        1 UNL1     -0.5056
     46 O         4.018046   3.689695   -3.281687 O.2        1 UNL1     -0.2836
     47 C         5.372544   2.282738   0.781318 C.3        1 UNL1     -0.0566
     48 O         3.553433   0.09964   0.542577 O.3        1 UNL1     -0.3909
     49 C         0.631918   0.528802   -0.666834 C.3        1 UNL1     -0.0577
     50 O         1.339413   3.938747   0.266685 O.3        1 UNL1     -0.3910
     51 O         -0.708535   5.396872   -1.076679 O.3        1 UNL1     -0.3753
     52 C         -0.008741   2.286611   -3.061784 C.3        1 UNL1     -0.0564
     53 O         -2.413848   1.380251   -1.035371 O.3        1 UNL1     -0.4608
     54 C         -3.428788   0.942255   -0.225441 C.2        1 UNL1     0.3042
     55 O         -3.352825   0.12587   0.691938 O.2        1 UNL1     -0.2512
     56 C         -4.746784   1.609238   -0.498817 C.3        1 UNL1     0.0332
     57 C         -1.652923   4.345339   1.055642 C.3        1 UNL1     -0.0567
     58 C         2.119013   5.390263   -5.369466 C.3        1 UNL1     0.0210
     59 C         0.123109   4.904758   -0.026889 C.3        1 UNL1     0.0372
     60 C         0.782991   4.964289   -2.809036 C.2        1 UNL1     -0.0208
     61 C         1.743546   5.760869   -2.338357 C.2        1 UNL1     0.0882
     62 H         4.602613   2.667783   -1.179107 H        1 UNL1     0.0365
     63 H         6.304197   2.738702   -2.305966 H        1 UNL1     0.0576
     64 H         8.105656   0.299676   -1.755808 H        1 UNL1     0.0615
     65 H         8.301736   2.676564   -3.773186 H        1 UNL1     0.0622
     66 H         -1.274068   5.171729   -3.022612 H        1 UNL1     0.0645
     67 H         -1.862761   3.134067   -2.98287 H        1 UNL1     0.0362
     68 H         -2.610997   3.332989   -0.929447 H        1 UNL1     0.0741
     69 H         -1.425367   2.337634   1.222282 H        1 UNL1     0.0359
     70 H         0.700329   2.772773   1.762265 H        1 UNL1     0.0600
     71 H         1.465733   0.830741   1.172877 H        1 UNL1     0.0348
     72 H         3.177589   2.194261   0.104042 H        1 UNL1     0.0602
     73 H         0.900684   4.491248   -3.752238 H        1 UNL1     0.0628
     74 H         1.725212   6.235344   -1.356636 H        1 UNL1     0.1022
     75 H         11.35749   -0.048711   -3.717523 H        1 UNL1     0.0279
     76 H         10.403461   -0.786799   -4.941597 H        1 UNL1     0.0279
     77 H         11.590991   0.526518   -5.316123 H        1 UNL1     0.0279
     78 H         9.048443   0.623128   -6.732676 H        1 UNL1     0.1553
     79 H         7.654695   -0.237978   -5.618141 H        1 UNL1     0.1484
     80 H         3.865936   -0.509087   -5.511858 H        1 UNL1     0.0317
     81 H         4.720796   0.372328   -6.769732 H        1 UNL1     0.0317
     82 H         6.5065   -1.386916   -6.869877 H        1 UNL1     0.0428
     83 H         4.905609   -2.03082   -7.160113 H        1 UNL1     0.0428
     84 H         6.498011   -2.577207   -3.252575 H        1 UNL1     0.0428
     85 H         7.518182   -1.771184   -4.392181 H        1 UNL1     0.0428
     86 H         6.270935   -0.335145   -2.777555 H        1 UNL1     0.0317
     87 H         4.748781   -0.86882   -3.325814 H        1 UNL1     0.0317
     88 H         6.881612   -3.775954   -6.342478 H        1 UNL1     0.0429
     89 H         6.406594   -4.40683   -4.763685 H        1 UNL1     0.0429
     90 H         4.9499   -4.405803   -7.394441 H        1 UNL1     0.0308
     91 H         4.986914   -6.209404   -4.916072 H        1 UNL1     0.0233
     92 H         3.878222   -6.470093   -6.286597 H        1 UNL1     0.0233
     93 H         5.609481   -6.588356   -6.517593 H        1 UNL1     0.0233
     94 H         2.719691   -4.526632   -6.06007 H        1 UNL1     0.0233
     95 H         3.593662   -3.560063   -4.861635 H        1 UNL1     0.0233
     96 H         3.388197   -2.946873   -6.518673 H        1 UNL1     0.0233
     97 H         4.443572   8.160155   -7.240415 H        1 UNL1     0.0280
     98 H         5.699543   8.811272   -6.222686 H        1 UNL1     0.0280
     99 H         6.091832   8.277074   -7.884153 H        1 UNL1     0.0280
     100 H         8.522301   6.053757   -7.880646 H        1 UNL1     0.2922
     101 H         5.01009   3.299631   0.930353 H        1 UNL1     0.0236
     102 H         6.437139   2.192625   0.994628 H        1 UNL1     0.0236
     103 H         4.877051   1.690781   1.568888 H        1 UNL1     0.0236
     104 H         4.414159   0.305583   0.956954 H        1 UNL1     0.2098
     105 H         -0.000642   1.084979   -1.354108 H        1 UNL1     0.0234
     106 H         1.163593   -0.260818   -1.197634 H        1 UNL1     0.0234
     107 H         0.0   -0.0   0.0 H        1 UNL1     0.0234
     108 H         2.267795   3.81922   0.545232 H        1 UNL1     0.2098
     109 H         -0.285401   2.178548   -4.119845 H        1 UNL1     0.0234
     110 H         1.027138   2.634748   -2.987623 H        1 UNL1     0.0234
     111 H         0.023777   1.266163   -2.657341 H        1 UNL1     0.0234
     112 H         -5.505722   1.231256   0.192912 H        1 UNL1     0.0342
     113 H         -4.675399   2.694552   -0.4455 H        1 UNL1     0.0342
     114 H         -5.05957   1.345922   -1.518618 H        1 UNL1     0.0342
     115 H         -1.155304   4.668109   1.980511 H        1 UNL1     0.0234
     116 H         -1.628976   5.185937   0.359316 H        1 UNL1     0.0234
     117 H         -2.692506   4.221932   1.404899 H        1 UNL1     0.0234
     118 H         1.11109   5.734205   -5.07826 H        1 UNL1     0.0309
     119 H         2.352628   5.771222   -6.368715 H        1 UNL1     0.0309
     120 H         1.994448   4.307425   -5.479241 H        1 UNL1     0.0309
     121 H         -0.35159   5.164347   0.91896 H        1 UNL1     0.0524
     122 H         0.227792   3.807373   -0.055614 H        1 UNL1     0.0524
     123 H         1.11001   5.354775   -0.086917 H        1 UNL1     0.0524
@<TRIPOS>BOND
     1     1     2    1
     2     1    42    1
     3     2     3    2
     4     3     4    1
     5     4     5    2
     6     5     7    1
     7     6    75    1
     8     6    76    1
     9     6    77    1
    10     7     9   am
    11     9    10    1
    12    10    11    2
    13    10    43    1
    14    11    14    1
    15    11    15    1
    16    12    13   ar
    17    12    27   ar
    18    12    43    1
    19    13    14    1
    20    13    30   ar
    21    14    17    2
    22    15    16    1
    23    16    17    1
    24    16    18    1
    25    16    22    1
    26    18    19    1
    27    19    20    1
    28    20    21    1
    29    21    22    1
    30    23    24    1
    31    23    88    1
    32    23    89    1
    33    24    25    1
    34    24    26    1
    35    24    90    1
    36    25    91    1
    37    25    92    1
    38    25    93    1
    39    26    94    1
    40    26    95    1
    41    26    96    1
    42    27    28   ar
    43    28    29   ar
    44    29    30   ar
    45    29    31    1
    46    30    33    1
    47    31    32    1
    48    32    33    1
    49    32    35    1
    50    34    97    1
    51    34    98    1
    52    34    99    1
    53    35    61    1
    54    36    37    1
    55    36    60    1
    56    37    38    1
    57    38    39    1
    58    39    40    1
    59    40    41    1
    60    41    42    1
    61    45   100    1
    62    47   101    1
    63    47   102    1
    64    47   103    1
    65    48   104    1
    66    49   105    1
    67    49   106    1
    68    49   107    1
    69    50   108    1
    70    51    59    1
    71    52   109    1
    72    52   110    1
    73    52   111    1
    74    53    54    1
    75    54    55    2
    76    54    56    1
    77    56   112    1
    78    56   113    1
    79    56   114    1
    80    57   115    1
    81    57   116    1
    82    57   117    1
    83    58   118    1
    84    58   119    1
    85    58   120    1
    86    59   121    1
    87    59   122    1
    88    59   123    1
    89    60    61    2
    90     1    47    1
    91     1    62    1
    92     2    63    1
    93     3    64    1
    94     4    65    1
    95     5     6    1
    96     7     8    2
    97     9    78    1
    98    15    79    1
    99    18    80    1
   100    18    81    1
   101    19    82    1
   102    19    83    1
   103    20    23    1
   104    21    84    1
   105    21    85    1
   106    22    86    1
   107    22    87    1
   108    27    45    1
   109    28    34    1
   110    32    58    1
   111    33    46    2
   112    36    51    1
   113    36    66    1
   114    37    52    1
   115    37    67    1
   116    38    53    1
   117    38    68    1
   118    42    48    1
   119    42    72    1
   120    43    44    2
   121    60    73    1
   122    61    74    1
   123    39    69    1
   124    39    57    1
   125    40    70    1
   126    40    50    1
   127    41    71    1
   128    41    49    1
