@<TRIPOS>MOLECULE
*****
 123 128 0 0 0
SMALL
GASTEIGER

@<TRIPOS>ATOM
     1 C         -0.842713   4.001801   0.566332 C.3        1 UNL1     0.0009
     2 C         -2.495109   4.789628   0.859512 C.2        1 UNL1     -0.0787
     3 C         -3.677756   5.453457   0.352833 C.2        1 UNL1     -0.0649
     4 C         -5.075052   5.884748   1.206009 C.2        1 UNL1     -0.0542
     5 C         -6.445854   6.224265   1.093283 C.2        1 UNL1     0.0115
     6 C         -7.571014   6.590701   0.086773 C.3        1 UNL1     -0.0348
     7 C         -7.379922   6.126849   2.395211 C.2        1 UNL1     0.2441
     8 O         -7.720656   7.106059   3.044497 O.2        1 UNL1     -0.2702
     9 N         -7.992958   4.876589   2.588054 N.am        1 UNL1     -0.2772
     10 C         -7.171695   4.046192   3.315577 C.2        1 UNL1     0.1049
     11 C         -6.236766   3.409292   2.634043 C.2        1 UNL1     0.0801
     12 C         -5.775161   3.957117   5.389002 C.ar        1 UNL1     0.0753
     13 C         -4.717889   3.461299   4.561385 C.ar        1 UNL1     0.0305
     14 C         -4.956981   3.047553   3.180552 C.2        1 UNL1     0.0924
     15 N         -6.078207   3.271397   1.3065 N.pl3        1 UNL1     -0.3170
     16 C         -5.002515   2.341435   1.0867 C.3        1 UNL1     0.1275
     17 N         -4.128405   2.478955   2.309297 N.2        1 UNL1     -0.2557
     18 C         -5.59833   0.938233   1.147765 C.3        1 UNL1     0.0016
     19 C         -6.726574   0.844356   0.132955 C.3        1 UNL1     0.0026
     20 N         -6.189932   1.128578   -1.190775 N.3        1 UNL1     -0.3018
     21 C         -5.540382   2.433456   -1.331294 C.3        1 UNL1     0.0026
     22 C         -4.407567   2.504224   -0.30581 C.3        1 UNL1     0.0016
     23 C         -7.105111   0.776052   -2.257928 C.3        1 UNL1     0.0012
     24 C         -7.233474   -0.750901   -2.374953 C.3        1 UNL1     -0.0339
     25 C         -7.436001   -1.18796   -3.835096 C.3        1 UNL1     -0.0615
     26 C         -6.022801   -1.424509   -1.752616 C.3        1 UNL1     -0.0615
     27 C         -5.566054   4.235222   6.737724 C.ar        1 UNL1     0.1347
     28 C         -4.358419   4.02059   7.377725 C.ar        1 UNL1     0.0342
     29 C         -3.318907   3.578409   6.532115 C.ar        1 UNL1     0.1435
     30 C         -3.504212   3.330045   5.171528 C.ar        1 UNL1     0.0774
     31 O         -2.11367   3.219265   7.025496 O.3        1 UNL1     -0.4436
     32 C         -1.526433   2.410331   5.995131 C.3        1 UNL1     0.3143
     33 C         -2.2239   2.829291   4.716762 C.2        1 UNL1     0.2504
     34 C         -4.129285   4.055701   8.863109 C.3        1 UNL1     -0.0327
     35 O         -0.15514   2.807242   5.871566 O.2        1 UNL1     -0.4528
     36 C         1.725747   -0.287847   4.735443 C.3        1 UNL1     0.0854
     37 C         1.490587   -1.184145   3.45917 C.3        1 UNL1     0.0236
     38 C         2.776563   -1.373383   2.519916 C.3        1 UNL1     0.1131
     39 C         3.594092   -0.1058   2.043314 C.3        1 UNL1     0.0200
     40 C         2.799516   1.261314   1.512197 C.3        1 UNL1     0.0661
     41 C         1.554425   1.302751   0.360832 C.3        1 UNL1     0.0091
     42 C         0.110353   2.423984   0.209519 C.3        1 UNL1     0.0661
     43 C         -7.125009   4.080656   4.784926 C.2        1 UNL1     0.2131
     44 O         -8.153999   4.104035   5.435595 O.2        1 UNL1     -0.2851
     45 O         -6.635462   4.758016   7.461941 O.3        1 UNL1     -0.5056
     46 O         -1.807772   2.781331   3.580808 O.2        1 UNL1     -0.2836
     47 C         0.230748   5.088047   0.287527 C.3        1 UNL1     -0.0566
     48 O         0.316025   2.679414   -1.236708 O.3        1 UNL1     -0.3909
     49 C         1.045275   -0.104474   0.141795 C.3        1 UNL1     -0.0577
     50 O         2.482893   2.110219   2.597017 O.3        1 UNL1     -0.3910
     51 O         2.969289   0.37274   4.803696 O.3        1 UNL1     -0.3753
     52 C         0.053393   -0.995792   2.8727 C.3        1 UNL1     -0.0564
     53 O         2.635845   -2.489717   1.526777 O.3        1 UNL1     -0.4608
     54 C         3.111352   -2.475269   0.241626 C.2        1 UNL1     0.3042
     55 O         2.467661   -2.292424   -0.79088 O.2        1 UNL1     -0.2512
     56 C         4.60018   -2.652936   0.14922 C.3        1 UNL1     0.0332
     57 C         4.816245   0.088798   3.056551 C.3        1 UNL1     -0.0567
     58 C         -1.909861   0.946941   6.316073 C.3        1 UNL1     0.0210
     59 C         3.135822   1.221131   5.938758 C.3        1 UNL1     0.0372
     60 C         0.679057   0.740915   4.982931 C.2        1 UNL1     -0.0208
     61 C         0.792938   2.026657   5.318554 C.2        1 UNL1     0.0882
     62 H         -0.784051   3.771377   1.636928 H        1 UNL1     0.0365
     63 H         -2.549602   4.748835   1.949391 H        1 UNL1     0.0576
     64 H         -3.839987   5.59554   -0.717962 H        1 UNL1     0.0615
     65 H         -4.781841   5.783625   2.254477 H        1 UNL1     0.0622
     66 H         1.665029   -0.988708   5.579926 H        1 UNL1     0.0645
     67 H         1.364372   -2.202435   3.866252 H        1 UNL1     0.0362
     68 H         3.440287   -1.901932   3.221079 H        1 UNL1     0.0741
     69 H         4.193001   -0.380385   1.185224 H        1 UNL1     0.0359
     70 H         3.630687   1.7751   0.992353 H        1 UNL1     0.0600
     71 H         2.148154   1.46455   -0.560182 H        1 UNL1     0.0348
     72 H         0.831073   2.943514   0.857567 H        1 UNL1     0.0602
     73 H         -0.275406   0.275901   4.979568 H        1 UNL1     0.0628
     74 H         1.725604   2.591078   5.290278 H        1 UNL1     0.1022
     75 H         -7.215858   7.36763   -0.632449 H        1 UNL1     0.0279
     76 H         -7.908031   5.795733   -0.574676 H        1 UNL1     0.0279
     77 H         -8.416697   7.10733   0.563863 H        1 UNL1     0.0279
     78 H         -8.156158   4.432983   1.686579 H        1 UNL1     0.1553
     79 H         -6.812774   3.420621   0.63936 H        1 UNL1     0.1484
     80 H         -4.809572   0.205488   0.938687 H        1 UNL1     0.0317
     81 H         -5.97423   0.716112   2.152261 H        1 UNL1     0.0317
     82 H         -7.553722   1.526226   0.379517 H        1 UNL1     0.0428
     83 H         -7.138399   -0.163444   0.194517 H        1 UNL1     0.0428
     84 H         -5.076444   2.589342   -2.310207 H        1 UNL1     0.0428
     85 H         -6.259259   3.259643   -1.24214 H        1 UNL1     0.0428
     86 H         -3.874124   3.410353   -0.525713 H        1 UNL1     0.0317
     87 H         -3.668858   1.719221   -0.508723 H        1 UNL1     0.0317
     88 H         -8.091286   1.191961   -2.013441 H        1 UNL1     0.0429
     89 H         -6.79568   1.221702   -3.212089 H        1 UNL1     0.0429
     90 H         -8.096981   -1.084831   -1.787535 H        1 UNL1     0.0308
     91 H         -6.734033   -0.680144   -4.503277 H        1 UNL1     0.0233
     92 H         -7.309422   -2.268424   -3.936013 H        1 UNL1     0.0233
     93 H         -8.444522   -0.962602   -4.20243 H        1 UNL1     0.0233
     94 H         -5.904356   -2.435967   -2.15605 H        1 UNL1     0.0233
     95 H         -5.11742   -0.858815   -1.989762 H        1 UNL1     0.0233
     96 H         -6.120281   -1.495233   -0.665665 H        1 UNL1     0.0233
     97 H         -3.738738   3.114143   9.237505 H        1 UNL1     0.0280
     98 H         -3.396328   4.820726   9.1508 H        1 UNL1     0.0280
     99 H         -5.081075   4.264394   9.37851 H        1 UNL1     0.0280
     100 H         -7.066726   5.487142   7.052051 H        1 UNL1     0.2922
     101 H         0.861078   5.216375   1.167227 H        1 UNL1     0.0236
     102 H         -0.193139   6.032112   -0.053126 H        1 UNL1     0.0236
     103 H         0.926258   4.786957   -0.513599 H        1 UNL1     0.0236
     104 H         1.27889   2.743208   -1.39095 H        1 UNL1     0.2098
     105 H         1.452612   -0.597728   -0.737176 H        1 UNL1     0.0234
     106 H         1.122677   -0.75722   1.011195 H        1 UNL1     0.0234
     107 H         -0.0   0.0   0.0 H        1 UNL1     0.0234
     108 H         3.283467   2.630971   2.801142 H        1 UNL1     0.2098
     109 H         -0.729232   -1.275702   3.59163 H        1 UNL1     0.0234
     110 H         -0.132138   0.019489   2.505922 H        1 UNL1     0.0234
     111 H         -0.110881   -1.631101   1.992165 H        1 UNL1     0.0234
     112 H         4.915729   -2.610891   -0.897683 H        1 UNL1     0.0342
     113 H         5.138061   -1.920385   0.749134 H        1 UNL1     0.0342
     114 H         4.851473   -3.64978   0.53693 H        1 UNL1     0.0342
     115 H         4.701133   0.995802   3.665879 H        1 UNL1     0.0234
     116 H         4.963889   -0.749539   3.740248 H        1 UNL1     0.0234
     117 H         5.777249   0.290912   2.553001 H        1 UNL1     0.0234
     118 H         -1.830379   0.293573   5.42962 H        1 UNL1     0.0309
     119 H         -1.319809   0.517222   7.131783 H        1 UNL1     0.0309
     120 H         -2.95911   0.842831   6.613297 H        1 UNL1     0.0309
     121 H         2.738343   2.201772   5.678544 H        1 UNL1     0.0524
     122 H         2.576735   0.858822   6.817501 H        1 UNL1     0.0524
     123 H         4.187803   1.299829   6.198055 H        1 UNL1     0.0524
@<TRIPOS>BOND
     1     1     2    1
     2     1    42    1
     3     2     3    2
     4     3     4    1
     5     4     5    2
     6     5     7    1
     7     6    75    1
     8     6    76    1
     9     6    77    1
    10     7     9   am
    11     9    10    1
    12    10    11    2
    13    10    43    1
    14    11    14    1
    15    11    15    1
    16    12    13   ar
    17    12    27   ar
    18    12    43    1
    19    13    14    1
    20    13    30   ar
    21    14    17    2
    22    15    16    1
    23    16    17    1
    24    16    18    1
    25    16    22    1
    26    18    19    1
    27    19    20    1
    28    20    21    1
    29    21    22    1
    30    23    24    1
    31    23    88    1
    32    23    89    1
    33    24    25    1
    34    24    26    1
    35    24    90    1
    36    25    91    1
    37    25    92    1
    38    25    93    1
    39    26    94    1
    40    26    95    1
    41    26    96    1
    42    27    28   ar
    43    28    29   ar
    44    29    30   ar
    45    29    31    1
    46    30    33    1
    47    31    32    1
    48    32    33    1
    49    32    35    1
    50    34    97    1
    51    34    98    1
    52    34    99    1
    53    35    61    1
    54    36    37    1
    55    36    60    1
    56    37    38    1
    57    38    39    1
    58    39    40    1
    59    40    41    1
    60    41    42    1
    61    45   100    1
    62    47   101    1
    63    47   102    1
    64    47   103    1
    65    48   104    1
    66    49   105    1
    67    49   106    1
    68    49   107    1
    69    50   108    1
    70    51    59    1
    71    52   109    1
    72    52   110    1
    73    52   111    1
    74    53    54    1
    75    54    55    2
    76    54    56    1
    77    56   112    1
    78    56   113    1
    79    56   114    1
    80    57   115    1
    81    57   116    1
    82    57   117    1
    83    58   118    1
    84    58   119    1
    85    58   120    1
    86    59   121    1
    87    59   122    1
    88    59   123    1
    89    60    61    2
    90     1    47    1
    91     1    62    1
    92     2    63    1
    93     3    64    1
    94     4    65    1
    95     5     6    1
    96     7     8    2
    97     9    78    1
    98    15    79    1
    99    18    80    1
   100    18    81    1
   101    19    82    1
   102    19    83    1
   103    20    23    1
   104    21    84    1
   105    21    85    1
   106    22    86    1
   107    22    87    1
   108    27    45    1
   109    28    34    1
   110    32    58    1
   111    33    46    2
   112    36    51    1
   113    36    66    1
   114    37    52    1
   115    37    67    1
   116    38    53    1
   117    38    68    1
   118    42    48    1
   119    42    72    1
   120    43    44    2
   121    60    73    1
   122    61    74    1
   123    39    69    1
   124    39    57    1
   125    40    70    1
   126    40    50    1
   127    41    71    1
   128    41    49    1
