@<TRIPOS>MOLECULE
*****
 123 128 0 0 0
SMALL
GASTEIGER

@<TRIPOS>ATOM
     1 C         5.199227   1.590864   0.660652 C.3        1 UNL1     0.0009
     2 C         6.690335   2.342169   -0.145063 C.2        1 UNL1     -0.0787
     3 C         7.991461   2.196545   -0.763052 C.2        1 UNL1     -0.0649
     4 C         8.93421   3.395222   -1.498412 C.2        1 UNL1     -0.0542
     5 C         9.995975   3.645476   -2.402351 C.2        1 UNL1     0.0115
     6 C         11.133999   2.975542   -3.220528 C.3        1 UNL1     -0.0348
     7 C         10.160059   5.118333   -3.019407 C.2        1 UNL1     0.2441
     8 O         10.995586   5.91775   -2.620217 O.2        1 UNL1     -0.2702
     9 N         9.459193   5.336038   -4.218383 N.am        1 UNL1     -0.2772
     10 C         8.179003   5.766201   -3.954954 C.2        1 UNL1     0.1049
     11 C         7.292862   4.82506   -3.684341 C.2        1 UNL1     0.0801
     12 C         6.882644   7.428065   -2.607737 C.ar        1 UNL1     0.0753
     13 C         6.072589   6.329474   -2.177022 C.ar        1 UNL1     0.0305
     14 C         6.171   5.013813   -2.805038 C.2        1 UNL1     0.0924
     15 N         7.378804   3.491237   -3.825968 N.pl3        1 UNL1     -0.3170
     16 C         6.08011   2.935695   -3.55207 C.3        1 UNL1     0.1275
     17 N         5.439709   3.921032   -2.605116 N.2        1 UNL1     -0.2557
     18 C         5.275365   3.007798   -4.846245 C.3        1 UNL1     0.0016
     19 C         6.048052   2.288118   -5.940139 C.3        1 UNL1     0.0026
     20 N         6.260272   0.906482   -5.531391 N.3        1 UNL1     -0.3018
     21 C         6.97328   0.735659   -4.263792 C.3        1 UNL1     0.0026
     22 C         6.177233   1.46243   -3.178432 C.3        1 UNL1     0.0016
     23 C         6.717958   0.061385   -6.616277 C.3        1 UNL1     0.0012
     24 C         5.591075   -0.162326   -7.636984 C.3        1 UNL1     -0.0339
     25 C         5.690193   0.826845   -8.809917 C.3        1 UNL1     -0.0615
     26 C         5.602619   -1.602873   -8.118098 C.3        1 UNL1     -0.0615
     27 C         6.699184   8.707348   -2.08822 C.ar        1 UNL1     0.1347
     28 C         5.715418   9.017296   -1.166165 C.ar        1 UNL1     0.0342
     29 C         4.962122   7.910509   -0.720372 C.ar        1 UNL1     0.1435
     30 C         5.158668   6.616808   -1.205064 C.ar        1 UNL1     0.0774
     31 O         3.895374   8.06598   0.093806 O.3        1 UNL1     -0.4436
     32 C         3.140435   6.854965   -0.06234 C.3        1 UNL1     0.3143
     33 C         4.140062   5.824801   -0.547849 C.2        1 UNL1     0.2504
     34 C         5.296729   10.401468   -0.755228 C.3        1 UNL1     -0.0327
     35 O         2.719209   6.444133   1.244197 O.2        1 UNL1     -0.4528
     36 C         -0.567321   4.610567   0.749375 C.3        1 UNL1     0.0854
     37 C         -0.880213   3.350519   -0.146114 C.3        1 UNL1     0.0236
     38 C         -1.548364   2.117596   0.631845 C.3        1 UNL1     0.1131
     39 C         -0.886901   1.578301   1.963722 C.3        1 UNL1     0.0200
     40 C         0.766288   1.381105   2.066287 C.3        1 UNL1     0.0661
     41 C         1.741965   0.569865   0.940431 C.3        1 UNL1     0.0091
     42 C         3.479307   0.872457   0.434979 C.3        1 UNL1     0.0661
     43 C         7.865125   7.178455   -3.691567 C.2        1 UNL1     0.2131
     44 O         8.318813   8.055667   -4.403889 O.2        1 UNL1     -0.2851
     45 O         7.559829   9.711386   -2.527121 O.3        1 UNL1     -0.5056
     46 O         4.113101   4.62285   -0.404872 O.2        1 UNL1     -0.2836
     47 C         5.530002   1.164808   2.116346 C.3        1 UNL1     -0.0566
     48 O         3.879582   -0.551069   0.546646 O.3        1 UNL1     -0.3909
     49 C         0.945729   0.350126   -0.32654 C.3        1 UNL1     -0.0577
     50 O         1.390443   2.583713   2.468643 O.3        1 UNL1     -0.3910
     51 O         -0.747102   4.440022   2.137188 O.3        1 UNL1     -0.3753
     52 C         0.199201   3.144798   -1.258541 C.3        1 UNL1     -0.0564
     53 O         -2.151087   1.088332   -0.279015 O.3        1 UNL1     -0.4608
     54 C         -2.426776   -0.210306   0.060788 C.2        1 UNL1     0.3042
     55 O         -1.870796   -1.225586   -0.356264 O.2        1 UNL1     -0.2512
     56 C         -3.499275   -0.344244   1.10411 C.3        1 UNL1     0.0332
     57 C         -1.630986   2.283288   3.191527 C.3        1 UNL1     -0.0567
     58 C         2.113069   7.121905   -1.186969 C.3        1 UNL1     0.0210
     59 C         -1.079918   5.630831   2.84928 C.3        1 UNL1     0.0372
     60 C         0.788401   5.195048   0.560797 C.2        1 UNL1     -0.0208
     61 C         1.683003   5.610818   1.45833 C.2        1 UNL1     0.0882
     62 H         4.752009   2.590392   0.721084 H        1 UNL1     0.0365
     63 H         6.454117   3.404895   -0.059712 H        1 UNL1     0.0576
     64 H         8.425772   1.213449   -0.957998 H        1 UNL1     0.0615
     65 H         8.464367   4.329186   -1.178345 H        1 UNL1     0.0622
     66 H         -1.276286   5.3767   0.405203 H        1 UNL1     0.0645
     67 H         -1.713057   3.680254   -0.791254 H        1 UNL1     0.0362
     68 H         -2.493052   2.587808   0.944875 H        1 UNL1     0.0741
     69 H         -1.257174   0.580301   2.156863 H        1 UNL1     0.0359
     70 H         0.825408   0.727215   2.95735 H        1 UNL1     0.0600
     71 H         1.73776   -0.447461   1.378596 H        1 UNL1     0.0348
     72 H         3.354002   1.374376   1.405386 H        1 UNL1     0.0602
     73 H         0.949528   5.377208   -0.472694 H        1 UNL1     0.0628
     74 H         1.620493   5.412462   2.528837 H        1 UNL1     0.1022
     75 H         11.137821   1.871142   -3.055243 H        1 UNL1     0.0279
     76 H         11.061728   3.05012   -4.303249 H        1 UNL1     0.0279
     77 H         12.135917   3.252058   -2.860808 H        1 UNL1     0.0279
     78 H         9.388394   4.462807   -4.736585 H        1 UNL1     0.1553
     79 H         8.051803   3.035866   -4.414731 H        1 UNL1     0.1484
     80 H         4.292633   2.549446   -4.682177 H        1 UNL1     0.0317
     81 H         5.091668   4.048148   -5.135345 H        1 UNL1     0.0317
     82 H         7.00341   2.787191   -6.159519 H        1 UNL1     0.0428
     83 H         5.457282   2.353165   -6.854365 H        1 UNL1     0.0428
     84 H         7.049247   -0.307132   -3.94033 H        1 UNL1     0.0428
     85 H         8.017605   1.069998   -4.333924 H        1 UNL1     0.0428
     86 H         6.652608   1.205865   -2.249895 H        1 UNL1     0.0317
     87 H         5.179252   1.017188   -3.084146 H        1 UNL1     0.0317
     88 H         7.549201   0.572136   -7.119729 H        1 UNL1     0.0429
     89 H         7.107437   -0.893635   -6.240755 H        1 UNL1     0.0429
     90 H         4.623663   -0.019955   -7.140941 H        1 UNL1     0.0308
     91 H         6.656022   0.746245   -9.317637 H        1 UNL1     0.0233
     92 H         4.889557   0.651055   -9.532198 H        1 UNL1     0.0233
     93 H         5.586807   1.869732   -8.486602 H        1 UNL1     0.0233
     94 H         4.932923   -1.719602   -8.977003 H        1 UNL1     0.0233
     95 H         6.610855   -1.882452   -8.436308 H        1 UNL1     0.0233
     96 H         5.277892   -2.289095   -7.330939 H        1 UNL1     0.0233
     97 H         4.47624   10.384691   -0.044068 H        1 UNL1     0.0280
     98 H         6.109891   10.950767   -0.262996 H        1 UNL1     0.0280
     99 H         4.972553   10.967957   -1.643538 H        1 UNL1     0.0280
     100 H         7.128746   10.472473   -2.874305 H        1 UNL1     0.2922
     101 H         4.636318   0.764011   2.594202 H        1 UNL1     0.0236
     102 H         5.985145   1.961851   2.703331 H        1 UNL1     0.0236
     103 H         6.259912   0.338814   2.150383 H        1 UNL1     0.0236
     104 H         4.26337   -0.680656   1.435963 H        1 UNL1     0.2098
     105 H         0.78241   1.248898   -0.915902 H        1 UNL1     0.0234
     106 H         1.313128   -0.456208   -0.961183 H        1 UNL1     0.0234
     107 H         0.0   -0.0   0.0 H        1 UNL1     0.0234
     108 H         1.235445   3.241107   1.763252 H        1 UNL1     0.2098
     109 H         1.205649   3.003334   -0.840497 H        1 UNL1     0.0234
     110 H         -0.03495   2.318058   -1.937819 H        1 UNL1     0.0234
     111 H         0.271787   4.01935   -1.918721 H        1 UNL1     0.0234
     112 H         -3.66627   -1.401244   1.332604 H        1 UNL1     0.0342
     113 H         -3.265202   0.218345   2.006632 H        1 UNL1     0.0342
     114 H         -4.432552   0.062533   0.690963 H        1 UNL1     0.0342
     115 H         -2.704317   2.049001   3.207596 H        1 UNL1     0.0234
     116 H         -1.222571   2.019152   4.169013 H        1 UNL1     0.0234
     117 H         -1.654257   3.384217   3.118351 H        1 UNL1     0.0234
     118 H         1.213748   7.641335   -0.812241 H        1 UNL1     0.0309
     119 H         2.530983   7.688745   -2.024968 H        1 UNL1     0.0309
     120 H         1.71053   6.198038   -1.61655 H        1 UNL1     0.0309
     121 H         -0.248779   6.326246   2.735425 H        1 UNL1     0.0524
     122 H         -1.981116   6.121656   2.445584 H        1 UNL1     0.0524
     123 H         -1.240743   5.407776   3.90022 H        1 UNL1     0.0524
@<TRIPOS>BOND
     1     1     2    1
     2     1    42    1
     3     2     3    2
     4     3     4    1
     5     4     5    2
     6     5     7    1
     7     6    75    1
     8     6    76    1
     9     6    77    1
    10     7     9   am
    11     9    10    1
    12    10    11    2
    13    10    43    1
    14    11    14    1
    15    11    15    1
    16    12    13   ar
    17    12    27   ar
    18    12    43    1
    19    13    14    1
    20    13    30   ar
    21    14    17    2
    22    15    16    1
    23    16    17    1
    24    16    18    1
    25    16    22    1
    26    18    19    1
    27    19    20    1
    28    20    21    1
    29    21    22    1
    30    23    24    1
    31    23    88    1
    32    23    89    1
    33    24    25    1
    34    24    26    1
    35    24    90    1
    36    25    91    1
    37    25    92    1
    38    25    93    1
    39    26    94    1
    40    26    95    1
    41    26    96    1
    42    27    28   ar
    43    28    29   ar
    44    29    30   ar
    45    29    31    1
    46    30    33    1
    47    31    32    1
    48    32    33    1
    49    32    35    1
    50    34    97    1
    51    34    98    1
    52    34    99    1
    53    35    61    1
    54    36    37    1
    55    36    60    1
    56    37    38    1
    57    38    39    1
    58    39    40    1
    59    40    41    1
    60    41    42    1
    61    45   100    1
    62    47   101    1
    63    47   102    1
    64    47   103    1
    65    48   104    1
    66    49   105    1
    67    49   106    1
    68    49   107    1
    69    50   108    1
    70    51    59    1
    71    52   109    1
    72    52   110    1
    73    52   111    1
    74    53    54    1
    75    54    55    2
    76    54    56    1
    77    56   112    1
    78    56   113    1
    79    56   114    1
    80    57   115    1
    81    57   116    1
    82    57   117    1
    83    58   118    1
    84    58   119    1
    85    58   120    1
    86    59   121    1
    87    59   122    1
    88    59   123    1
    89    60    61    2
    90     1    47    1
    91     1    62    1
    92     2    63    1
    93     3    64    1
    94     4    65    1
    95     5     6    1
    96     7     8    2
    97     9    78    1
    98    15    79    1
    99    18    80    1
   100    18    81    1
   101    19    82    1
   102    19    83    1
   103    20    23    1
   104    21    84    1
   105    21    85    1
   106    22    86    1
   107    22    87    1
   108    27    45    1
   109    28    34    1
   110    32    58    1
   111    33    46    2
   112    36    51    1
   113    36    66    1
   114    37    52    1
   115    37    67    1
   116    38    53    1
   117    38    68    1
   118    42    48    1
   119    42    72    1
   120    43    44    2
   121    60    73    1
   122    61    74    1
   123    39    69    1
   124    39    57    1
   125    40    70    1
   126    40    50    1
   127    41    71    1
   128    41    49    1
