@<TRIPOS>MOLECULE
*****
 123 128 0 0 0
SMALL
GASTEIGER

@<TRIPOS>ATOM
     1 C         2.7016   2.046119   4.188226 C.3        1 UNL1     0.0009
     2 C         3.862208   1.59363   5.561281 C.2        1 UNL1     -0.0787
     3 C         4.125277   1.403448   6.972192 C.2        1 UNL1     -0.0649
     4 C         5.528176   0.791495   7.695896 C.2        1 UNL1     -0.0542
     5 C         6.068836   0.201142   8.864762 C.2        1 UNL1     0.0115
     6 C         5.773258   -0.143671   10.35038 C.3        1 UNL1     -0.0348
     7 C         7.476855   -0.563868   8.768687 C.2        1 UNL1     0.2441
     8 O         8.529125   -0.0716   9.151997 O.2        1 UNL1     -0.2702
     9 N         7.383973   -1.931709   8.457989 N.am        1 UNL1     -0.2772
     10 C         7.376692   -2.114968   7.094286 C.2        1 UNL1     0.1049
     11 C         6.210125   -1.966284   6.493257 C.2        1 UNL1     0.0801
     12 C         8.58173   -1.468839   4.999594 C.ar        1 UNL1     0.0753
     13 C         7.300882   -1.122603   4.462792 C.ar        1 UNL1     0.0305
     14 C         6.061396   -1.484453   5.146745 C.2        1 UNL1     0.0924
     15 N         4.975512   -1.868899   7.015537 N.pl3        1 UNL1     -0.3170
     16 C         4.034711   -1.894735   5.927198 C.3        1 UNL1     0.1275
     17 N         4.799855   -1.33488   4.752958 N.2        1 UNL1     -0.2557
     18 C         3.765052   -3.35971   5.597298 C.3        1 UNL1     0.0016
     19 C         3.286158   -4.061922   6.857912 C.3        1 UNL1     0.0026
     20 N         2.078154   -3.400557   7.33157 N.3        1 UNL1     -0.3018
     21 C         2.222899   -1.971617   7.617136 C.3        1 UNL1     0.0026
     22 C         2.70023   -1.285248   6.336141 C.3        1 UNL1     0.0016
     23 C         1.376766   -4.164791   8.343818 C.3        1 UNL1     0.0012
     24 C         0.234246   -3.334775   8.950017 C.3        1 UNL1     -0.0339
     25 C         -1.064227   -3.490344   8.141424 C.3        1 UNL1     -0.0615
     26 C         0.033574   -3.711343   10.407655 C.3        1 UNL1     -0.0615
     27 C         9.752816   -1.228253   4.284896 C.ar        1 UNL1     0.1347
     28 C         9.766468   -0.68533   3.012458 C.ar        1 UNL1     0.0342
     29 C         8.497619   -0.307349   2.524281 C.ar        1 UNL1     0.1435
     30 C         7.319188   -0.509028   3.243897 C.ar        1 UNL1     0.0774
     31 O         8.332418   0.133796   1.258143 O.3        1 UNL1     -0.4436
     32 C         6.932574   -0.041794   0.992669 C.3        1 UNL1     0.3143
     33 C         6.269657   -0.05569   2.355226 C.2        1 UNL1     0.2504
     34 C         10.952118   -0.630884   2.089761 C.3        1 UNL1     -0.0327
     35 O         6.475708   1.137171   0.318451 O.2        1 UNL1     -0.4528
     36 C         3.628457   0.014625   -1.926798 C.3        1 UNL1     0.0854
     37 C         2.289971   -0.726292   -1.543365 C.3        1 UNL1     0.0236
     38 C         0.94858   0.009697   -2.023711 C.3        1 UNL1     0.1131
     39 C         0.732739   1.541823   -1.694662 C.3        1 UNL1     0.0200
     40 C         1.103217   2.141641   -0.182908 C.3        1 UNL1     0.0661
     41 C         0.604021   1.481382   1.297792 C.3        1 UNL1     0.0091
     42 C         1.440358   1.452754   2.930312 C.3        1 UNL1     0.0661
     43 C         8.615761   -2.174475   6.304654 C.2        1 UNL1     0.2131
     44 O         9.554393   -2.854511   6.677827 O.2        1 UNL1     -0.2851
     45 O         10.961064   -1.553121   4.898113 O.3        1 UNL1     -0.5056
     46 O         5.13687   0.258153   2.645311 O.2        1 UNL1     -0.2836
     47 C         2.488873   3.583321   4.146502 C.3        1 UNL1     -0.0566
     48 O         0.239597   1.893381   3.680735 O.3        1 UNL1     -0.3909
     49 C         0.063923   0.089807   1.054262 C.3        1 UNL1     -0.0577
     50 O         2.464812   2.514017   -0.111358 O.3        1 UNL1     -0.3910
     51 O         3.482573   1.302173   -2.482106 O.3        1 UNL1     -0.3753
     52 C         2.396068   -1.438087   -0.155186 C.3        1 UNL1     -0.0564
     53 O         -0.270008   -0.864326   -1.964942 O.3        1 UNL1     -0.4608
     54 C         -0.548649   -1.774861   -0.97944 C.2        1 UNL1     0.3042
     55 O         -1.347793   -2.709021   -1.029943 O.2        1 UNL1     -0.2512
     56 C         0.284944   -1.596313   0.257475 C.3        1 UNL1     0.0332
     57 C         1.21452   2.381123   -2.968097 C.3        1 UNL1     -0.0567
     58 C         6.78129   -1.440226   0.349996 C.3        1 UNL1     0.0210
     59 C         3.377968   1.333024   -3.904769 C.3        1 UNL1     0.0372
     60 C         4.620077   0.132953   -0.823236 C.2        1 UNL1     -0.0208
     61 C         5.357632   1.172858   -0.431629 C.2        1 UNL1     0.0882
     62 H         3.496829   1.820568   3.467498 H        1 UNL1     0.0365
     63 H         4.788543   1.442122   5.003232 H        1 UNL1     0.0576
     64 H         3.333994   1.495554   7.719517 H        1 UNL1     0.0615
     65 H         6.268094   0.815184   6.891257 H        1 UNL1     0.0622
     66 H         4.095066   -0.632154   -2.683105 H        1 UNL1     0.0645
     67 H         2.288342   -1.625434   -2.183756 H        1 UNL1     0.0362
     68 H         1.093404   -0.037022   -3.113833 H        1 UNL1     0.0741
     69 H         -0.319702   1.773418   -1.790266 H        1 UNL1     0.0359
     70 H         0.555209   3.102583   -0.219483 H        1 UNL1     0.0600
     71 H         -0.331532   2.052267   1.458384 H        1 UNL1     0.0348
     72 H         1.92324   2.256873   2.356263 H        1 UNL1     0.0602
     73 H         4.789714   -0.82664   -0.401747 H        1 UNL1     0.0628
     74 H         5.207581   2.198139   -0.771513 H        1 UNL1     0.1022
     75 H         6.341899   0.534937   11.030947 H        1 UNL1     0.0279
     76 H         4.747712   -0.005985   10.685592 H        1 UNL1     0.0279
     77 H         6.167934   -1.126989   10.645369 H        1 UNL1     0.0279
     78 H         6.510522   -2.306632   8.822124 H        1 UNL1     0.1553
     79 H         4.739361   -2.162855   7.945459 H        1 UNL1     0.1484
     80 H         3.015078   -3.414223   4.798966 H        1 UNL1     0.0317
     81 H         4.667704   -3.846868   5.213177 H        1 UNL1     0.0317
     82 H         4.062379   -4.073851   7.637175 H        1 UNL1     0.0428
     83 H         3.10153   -5.105358   6.60061 H        1 UNL1     0.0428
     84 H         1.283915   -1.482359   7.894168 H        1 UNL1     0.0428
     85 H         2.88169   -1.791449   8.477862 H        1 UNL1     0.0428
     86 H         2.666904   -0.231553   6.542547 H        1 UNL1     0.0317
     87 H         1.95377   -1.412142   5.542547 H        1 UNL1     0.0317
     88 H         0.946551   -5.053484   7.863783 H        1 UNL1     0.0429
     89 H         2.063926   -4.520619   9.12226 H        1 UNL1     0.0429
     90 H         0.520441   -2.276331   8.950767 H        1 UNL1     0.0308
     91 H         -1.535054   -2.520534   7.954626 H        1 UNL1     0.0233
     92 H         -0.867921   -3.98357   7.186541 H        1 UNL1     0.0233
     93 H         -1.806652   -4.110034   8.658748 H        1 UNL1     0.0233
     94 H         -0.984914   -3.462935   10.725165 H        1 UNL1     0.0233
     95 H         0.174243   -4.787973   10.538199 H        1 UNL1     0.0233
     96 H         0.736701   -3.182192   11.056947 H        1 UNL1     0.0233
     97 H         11.577338   0.236276   2.280456 H        1 UNL1     0.0280
     98 H         11.606764   -1.5046   2.205153 H        1 UNL1     0.0280
     99 H         10.604612   -0.583261   1.044741 H        1 UNL1     0.0280
     100 H         11.044848   -2.457805   5.143368 H        1 UNL1     0.2922
     101 H         1.999924   3.911846   5.063375 H        1 UNL1     0.0236
     102 H         1.957017   3.918454   3.256671 H        1 UNL1     0.0236
     103 H         3.444569   4.133262   4.126465 H        1 UNL1     0.0236
     104 H         -0.066743   1.136607   4.217782 H        1 UNL1     0.2098
     105 H         0.703651   -0.710282   1.418155 H        1 UNL1     0.0234
     106 H         -0.961962   -0.065361   1.388042 H        1 UNL1     0.0234
     107 H         -0.0   0.0   0.0 H        1 UNL1     0.0234
     108 H         2.701221   2.568932   0.834614 H        1 UNL1     0.2098
     109 H         3.422495   -1.433214   0.237415 H        1 UNL1     0.0234
     110 H         1.714865   -1.022146   0.594946 H        1 UNL1     0.0234
     111 H         2.107466   -2.495686   -0.21954 H        1 UNL1     0.0234
     112 H         0.389624   -2.553591   0.777096 H        1 UNL1     0.0342
     113 H         1.259299   -1.16352   0.035743 H        1 UNL1     0.0342
     114 H         -0.241589   -0.904352   0.929128 H        1 UNL1     0.0342
     115 H         2.134229   1.9684   -3.405113 H        1 UNL1     0.0234
     116 H         0.471424   2.44374   -3.765553 H        1 UNL1     0.0234
     117 H         1.537376   3.407373   -2.722095 H        1 UNL1     0.0234
     118 H         6.484082   -1.378704   -0.711554 H        1 UNL1     0.0309
     119 H         7.685304   -2.051711   0.433954 H        1 UNL1     0.0309
     120 H         5.975237   -2.026686   0.804364 H        1 UNL1     0.0309
     121 H         3.032878   0.352394   -4.231319 H        1 UNL1     0.0524
     122 H         2.642782   2.076969   -4.254176 H        1 UNL1     0.0524
     123 H         4.344158   1.557086   -4.347903 H        1 UNL1     0.0524
@<TRIPOS>BOND
     1     1     2    1
     2     1    42    1
     3     2     3    2
     4     3     4    1
     5     4     5    2
     6     5     7    1
     7     6    75    1
     8     6    76    1
     9     6    77    1
    10     7     9   am
    11     9    10    1
    12    10    11    2
    13    10    43    1
    14    11    14    1
    15    11    15    1
    16    12    13   ar
    17    12    27   ar
    18    12    43    1
    19    13    14    1
    20    13    30   ar
    21    14    17    2
    22    15    16    1
    23    16    17    1
    24    16    18    1
    25    16    22    1
    26    18    19    1
    27    19    20    1
    28    20    21    1
    29    21    22    1
    30    23    24    1
    31    23    88    1
    32    23    89    1
    33    24    25    1
    34    24    26    1
    35    24    90    1
    36    25    91    1
    37    25    92    1
    38    25    93    1
    39    26    94    1
    40    26    95    1
    41    26    96    1
    42    27    28   ar
    43    28    29   ar
    44    29    30   ar
    45    29    31    1
    46    30    33    1
    47    31    32    1
    48    32    33    1
    49    32    35    1
    50    34    97    1
    51    34    98    1
    52    34    99    1
    53    35    61    1
    54    36    37    1
    55    36    60    1
    56    37    38    1
    57    38    39    1
    58    39    40    1
    59    40    41    1
    60    41    42    1
    61    45   100    1
    62    47   101    1
    63    47   102    1
    64    47   103    1
    65    48   104    1
    66    49   105    1
    67    49   106    1
    68    49   107    1
    69    50   108    1
    70    51    59    1
    71    52   109    1
    72    52   110    1
    73    52   111    1
    74    53    54    1
    75    54    55    2
    76    54    56    1
    77    56   112    1
    78    56   113    1
    79    56   114    1
    80    57   115    1
    81    57   116    1
    82    57   117    1
    83    58   118    1
    84    58   119    1
    85    58   120    1
    86    59   121    1
    87    59   122    1
    88    59   123    1
    89    60    61    2
    90     1    47    1
    91     1    62    1
    92     2    63    1
    93     3    64    1
    94     4    65    1
    95     5     6    1
    96     7     8    2
    97     9    78    1
    98    15    79    1
    99    18    80    1
   100    18    81    1
   101    19    82    1
   102    19    83    1
   103    20    23    1
   104    21    84    1
   105    21    85    1
   106    22    86    1
   107    22    87    1
   108    27    45    1
   109    28    34    1
   110    32    58    1
   111    33    46    2
   112    36    51    1
   113    36    66    1
   114    37    52    1
   115    37    67    1
   116    38    53    1
   117    38    68    1
   118    42    48    1
   119    42    72    1
   120    43    44    2
   121    60    73    1
   122    61    74    1
   123    39    69    1
   124    39    57    1
   125    40    70    1
   126    40    50    1
   127    41    71    1
   128    41    49    1
