@<TRIPOS>MOLECULE
*****
 123 128 0 0 0
SMALL
GASTEIGER

@<TRIPOS>ATOM
     1 C         1.866793   1.652831   -4.878011 C.3        1 UNL1     0.0009
     2 C         3.297509   1.642319   -6.056984 C.2        1 UNL1     -0.0787
     3 C         4.434662   2.306859   -6.65808 C.2        1 UNL1     -0.0649
     4 C         5.572198   1.657204   -7.730609 C.2        1 UNL1     -0.0542
     5 C         6.871614   1.805747   -8.275155 C.2        1 UNL1     0.0115
     6 C         8.088688   2.76565   -8.378304 C.3        1 UNL1     -0.0348
     7 C         7.560396   0.547529   -8.995887 C.2        1 UNL1     0.2441
     8 O         7.623279   0.42952   -10.211882 O.2        1 UNL1     -0.2702
     9 N         8.314863   -0.278505   -8.144652 N.am        1 UNL1     -0.2772
     10 C         7.514927   -1.246263   -7.581741 C.2        1 UNL1     0.1049
     11 C         6.827589   -0.884394   -6.51364 C.2        1 UNL1     0.0801
     12 C         5.799733   -2.977297   -8.146508 C.ar        1 UNL1     0.0753
     13 C         4.997929   -2.409592   -7.105629 C.ar        1 UNL1     0.0305
     14 C         5.542157   -1.428809   -6.169182 C.2        1 UNL1     0.0924
     15 N         6.933235   0.217139   -5.750757 N.pl3        1 UNL1     -0.3170
     16 C         6.071611   0.046651   -4.611111 C.3        1 UNL1     0.1275
     17 N         4.98163   -0.877554   -5.096404 N.2        1 UNL1     -0.2557
     18 C         6.856679   -0.73753   -3.564006 C.3        1 UNL1     0.0016
     19 C         8.149492   0.005837   -3.267979 C.3        1 UNL1     0.0026
     20 N         7.821806   1.340562   -2.786148 N.3        1 UNL1     -0.3018
     21 C         7.014018   2.150629   -3.700282 C.3        1 UNL1     0.0026
     22 C         5.718427   1.387135   -3.980309 C.3        1 UNL1     0.0016
     23 C         8.957059   2.021675   -2.196293 C.3        1 UNL1     0.0012
     24 C         10.171258   1.958006   -3.1362 C.3        1 UNL1     -0.0339
     25 C         11.488289   1.866384   -2.348107 C.3        1 UNL1     -0.0615
     26 C         10.018623   0.799478   -4.106403 C.3        1 UNL1     -0.0615
     27 C         5.311396   -3.998498   -8.95817 C.ar        1 UNL1     0.1347
     28 C         4.056502   -4.558867   -8.799183 C.ar        1 UNL1     0.0342
     29 C         3.266879   -3.950944   -7.800139 C.ar        1 UNL1     0.1435
     30 C         3.729619   -2.90299   -7.003342 C.ar        1 UNL1     0.0774
     31 O         2.063006   -4.454087   -7.450079 O.3        1 UNL1     -0.4436
     32 C         1.802707   -3.901207   -6.151064 C.3        1 UNL1     0.3143
     33 C         2.644955   -2.64353   -6.079788 C.2        1 UNL1     0.2504
     34 C         3.561785   -5.815307   -9.460028 C.3        1 UNL1     -0.0327
     35 O         0.431245   -3.486516   -6.131626 O.2        1 UNL1     -0.4528
     36 C         -0.712976   -3.843665   -2.530058 C.3        1 UNL1     0.0854
     37 C         -0.116646   -3.187845   -1.225522 C.3        1 UNL1     0.0236
     38 C         -1.168048   -2.355046   -0.346463 C.3        1 UNL1     0.1131
     39 C         -2.072916   -1.256603   -1.037047 C.3        1 UNL1     0.0200
     40 C         -1.417246   -0.196934   -2.145938 C.3        1 UNL1     0.0661
     41 C         -0.007347   0.721215   -1.92961 C.3        1 UNL1     0.0091
     42 C         1.249179   1.276779   -3.145297 C.3        1 UNL1     0.0661
     43 C         7.200438   -2.504289   -8.275153 C.2        1 UNL1     0.2131
     44 O         8.079662   -3.14504   -8.822089 O.2        1 UNL1     -0.2851
     45 O         6.139379   -4.464137   -9.977514 O.3        1 UNL1     -0.5056
     46 O         2.452055   -1.643558   -5.425036 O.2        1 UNL1     -0.2836
     47 C         0.705845   2.51246   -5.446534 C.3        1 UNL1     -0.0566
     48 O         1.269479   2.676501   -2.655928 O.3        1 UNL1     -0.3909
     49 C         0.744438   0.186064   -0.731308 C.3        1 UNL1     -0.0577
     50 O         -1.435811   -0.75521   -3.444285 O.3        1 UNL1     -0.3910
     51 O         -2.035579   -3.478534   -2.853834 O.3        1 UNL1     -0.3753
     52 C         1.355721   -2.705978   -1.43739 C.3        1 UNL1     -0.0564
     53 O         -0.680243   -2.044569   1.038447 O.3        1 UNL1     -0.4608
     54 C         -0.913704   -0.879505   1.721127 C.2        1 UNL1     0.3042
     55 O         -0.131169   0.053899   1.895005 O.2        1 UNL1     -0.2512
     56 C         -2.316155   -0.76087   2.246266 C.3        1 UNL1     0.0332
     57 C         -3.472268   -1.941858   -1.398177 C.3        1 UNL1     -0.0567
     58 C         2.3441   -4.923036   -5.124279 C.3        1 UNL1     0.0210
     59 C         -2.756873   -4.448871   -3.611492 C.3        1 UNL1     0.0372
     60 C         0.100209   -3.64688   -3.760979 C.2        1 UNL1     -0.0208
     61 C         -0.2697   -3.305158   -4.995944 C.2        1 UNL1     0.0882
     62 H         1.65326   0.614192   -5.157913 H        1 UNL1     0.0365
     63 H         3.161092   0.66953   -6.533997 H        1 UNL1     0.0576
     64 H         4.762521   3.294134   -6.325057 H        1 UNL1     0.0615
     65 H         5.114761   0.720177   -8.05957 H        1 UNL1     0.0622
     66 H         -0.697117   -4.923917   -2.327946 H        1 UNL1     0.0645
     67 H         0.090505   -4.047053   -0.564152 H        1 UNL1     0.0362
     68 H         -1.856925   -3.166453   -0.066122 H        1 UNL1     0.0741
     69 H         -2.458196   -0.593215   -0.274234 H        1 UNL1     0.0359
     70 H         -2.210925   0.574277   -2.165089 H        1 UNL1     0.0600
     71 H         -0.443843   1.65081   -1.514542 H        1 UNL1     0.0348
     72 H         0.352236   1.025238   -3.729709 H        1 UNL1     0.0602
     73 H         1.10005   -3.949394   -3.571107 H        1 UNL1     0.0628
     74 H         -1.258072   -2.928664   -5.261667 H        1 UNL1     0.1022
     75 H         7.800356   3.709513   -8.900819 H        1 UNL1     0.0279
     76 H         8.497731   3.133   -7.439791 H        1 UNL1     0.0279
     77 H         8.8774   2.382524   -9.042269 H        1 UNL1     0.0279
     78 H         8.703922   0.276967   -7.385599 H        1 UNL1     0.1553
     79 H         7.743542   0.808847   -5.736054 H        1 UNL1     0.1484
     80 H         6.24136   -0.845537   -2.662627 H        1 UNL1     0.0317
     81 H         7.075905   -1.750883   -3.917143 H        1 UNL1     0.0317
     82 H         8.803251   0.05332   -4.1513 H        1 UNL1     0.0428
     83 H         8.694521   -0.571436   -2.520484 H        1 UNL1     0.0428
     84 H         6.714923   3.116907   -3.28236 H        1 UNL1     0.0428
     85 H         7.568516   2.4142   -4.611534 H        1 UNL1     0.0428
     86 H         5.09941   2.062983   -4.540698 H        1 UNL1     0.0317
     87 H         5.158711   1.244211   -3.047899 H        1 UNL1     0.0317
     88 H         8.684409   3.074807   -2.048413 H        1 UNL1     0.0429
     89 H         9.19939   1.610357   -1.207927 H        1 UNL1     0.0429
     90 H         10.195814   2.864092   -3.753142 H        1 UNL1     0.0308
     91 H         11.413366   1.142519   -1.531096 H        1 UNL1     0.0233
     92 H         12.312841   1.581023   -3.005597 H        1 UNL1     0.0233
     93 H         11.773486   2.825199   -1.898472 H        1 UNL1     0.0233
     94 H         10.997648   0.504034   -4.498905 H        1 UNL1     0.0233
     95 H         9.586959   -0.063915   -3.592418 H        1 UNL1     0.0233
     96 H         9.374843   1.06682   -4.949044 H        1 UNL1     0.0233
     97 H         2.492508   -5.951208   -9.328091 H        1 UNL1     0.0280
     98 H         3.732135   -5.807124   -10.544541 H        1 UNL1     0.0280
     99 H         4.07714   -6.687901   -9.026341 H        1 UNL1     0.0280
     100 H         6.905727   -4.92268   -9.680746 H        1 UNL1     0.2922
     101 H         -0.228201   2.23943   -4.955952 H        1 UNL1     0.0236
     102 H         0.627424   2.462728   -6.532057 H        1 UNL1     0.0236
     103 H         0.836396   3.584467   -5.223039 H        1 UNL1     0.0236
     104 H         0.717671   2.715346   -1.850342 H        1 UNL1     0.2098
     105 H         1.273161   -0.746354   -0.912582 H        1 UNL1     0.0234
     106 H         1.404312   0.906853   -0.248652 H        1 UNL1     0.0234
     107 H         0.0   0.0   0.0 H        1 UNL1     0.0234
     108 H         -0.847864   -0.2108   -4.00259 H        1 UNL1     0.2098
     109 H         2.006959   -3.509426   -1.80897 H        1 UNL1     0.0234
     110 H         1.432999   -1.836286   -2.098758 H        1 UNL1     0.0234
     111 H         1.809723   -2.366383   -0.496909 H        1 UNL1     0.0234
     112 H         -2.298337   -0.383474   3.273203 H        1 UNL1     0.0342
     113 H         -2.939885   -0.13428   1.610508 H        1 UNL1     0.0342
     114 H         -2.761903   -1.764939   2.264147 H        1 UNL1     0.0342
     115 H         -4.308335   -1.234535   -1.309442 H        1 UNL1     0.0234
     116 H         -3.510526   -2.371297   -2.401256 H        1 UNL1     0.0234
     117 H         -3.777363   -2.723437   -0.681244 H        1 UNL1     0.0234
     118 H         1.531728   -5.482743   -4.628512 H        1 UNL1     0.0309
     119 H         3.054976   -5.633087   -5.558658 H        1 UNL1     0.0309
     120 H         2.866465   -4.443408   -4.289294 H        1 UNL1     0.0309
     121 H         -3.525421   -3.921593   -4.176 H        1 UNL1     0.0524
     122 H         -2.114419   -4.975169   -4.336958 H        1 UNL1     0.0524
     123 H         -3.212956   -5.179461   -2.949434 H        1 UNL1     0.0524
@<TRIPOS>BOND
     1     1     2    1
     2     1    42    1
     3     2     3    2
     4     3     4    1
     5     4     5    2
     6     5     7    1
     7     6    75    1
     8     6    76    1
     9     6    77    1
    10     7     9   am
    11     9    10    1
    12    10    11    2
    13    10    43    1
    14    11    14    1
    15    11    15    1
    16    12    13   ar
    17    12    27   ar
    18    12    43    1
    19    13    14    1
    20    13    30   ar
    21    14    17    2
    22    15    16    1
    23    16    17    1
    24    16    18    1
    25    16    22    1
    26    18    19    1
    27    19    20    1
    28    20    21    1
    29    21    22    1
    30    23    24    1
    31    23    88    1
    32    23    89    1
    33    24    25    1
    34    24    26    1
    35    24    90    1
    36    25    91    1
    37    25    92    1
    38    25    93    1
    39    26    94    1
    40    26    95    1
    41    26    96    1
    42    27    28   ar
    43    28    29   ar
    44    29    30   ar
    45    29    31    1
    46    30    33    1
    47    31    32    1
    48    32    33    1
    49    32    35    1
    50    34    97    1
    51    34    98    1
    52    34    99    1
    53    35    61    1
    54    36    37    1
    55    36    60    1
    56    37    38    1
    57    38    39    1
    58    39    40    1
    59    40    41    1
    60    41    42    1
    61    45   100    1
    62    47   101    1
    63    47   102    1
    64    47   103    1
    65    48   104    1
    66    49   105    1
    67    49   106    1
    68    49   107    1
    69    50   108    1
    70    51    59    1
    71    52   109    1
    72    52   110    1
    73    52   111    1
    74    53    54    1
    75    54    55    2
    76    54    56    1
    77    56   112    1
    78    56   113    1
    79    56   114    1
    80    57   115    1
    81    57   116    1
    82    57   117    1
    83    58   118    1
    84    58   119    1
    85    58   120    1
    86    59   121    1
    87    59   122    1
    88    59   123    1
    89    60    61    2
    90     1    47    1
    91     1    62    1
    92     2    63    1
    93     3    64    1
    94     4    65    1
    95     5     6    1
    96     7     8    2
    97     9    78    1
    98    15    79    1
    99    18    80    1
   100    18    81    1
   101    19    82    1
   102    19    83    1
   103    20    23    1
   104    21    84    1
   105    21    85    1
   106    22    86    1
   107    22    87    1
   108    27    45    1
   109    28    34    1
   110    32    58    1
   111    33    46    2
   112    36    51    1
   113    36    66    1
   114    37    52    1
   115    37    67    1
   116    38    53    1
   117    38    68    1
   118    42    48    1
   119    42    72    1
   120    43    44    2
   121    60    73    1
   122    61    74    1
   123    39    69    1
   124    39    57    1
   125    40    70    1
   126    40    50    1
   127    41    71    1
   128    41    49    1
