@<TRIPOS>MOLECULE
*****
 123 128 0 0 0
SMALL
GASTEIGER

@<TRIPOS>ATOM
     1 C         -5.252341   -1.262387   -0.474842 C.3        1 UNL1     0.0009
     2 C         -6.710794   -1.182175   -1.61656 C.2        1 UNL1     -0.0787
     3 C         -8.002522   -0.630394   -1.967305 C.2        1 UNL1     -0.0649
     4 C         -8.904476   -0.90541   -3.373434 C.2        1 UNL1     -0.0542
     5 C         -9.942768   -0.412546   -4.201754 C.2        1 UNL1     0.0115
     6 C         -11.078986   0.642378   -4.299039 C.3        1 UNL1     -0.0348
     7 C         -10.06272   -0.960218   -5.705967 C.2        1 UNL1     0.2441
     8 O         -10.888247   -1.796628   -6.045745 O.2        1 UNL1     -0.2702
     9 N         -9.334104   -0.227799   -6.659294 N.am        1 UNL1     -0.2772
     10 C         -8.050216   -0.712653   -6.758632 C.2        1 UNL1     0.1049
     11 C         -7.190204   -0.271521   -5.85863 C.2        1 UNL1     0.0801
     12 C         -6.744419   -2.829533   -7.02518 C.ar        1 UNL1     0.0753
     13 C         -5.967   -2.39899   -5.903191 C.ar        1 UNL1     0.0305
     14 C         -6.081804   -1.04447   -5.367329 C.2        1 UNL1     0.0924
     15 N         -7.302394   0.73838   -4.978834 N.pl3        1 UNL1     -0.3170
     16 C         -6.021673   0.915397   -4.34743 C.3        1 UNL1     0.1275
     17 N         -5.378502   -0.448536   -4.408604 N.2        1 UNL1     -0.2557
     18 C         -5.190541   1.816638   -5.255552 C.3        1 UNL1     0.0016
     19 C         -5.957302   3.107893   -5.492888 C.3        1 UNL1     0.0026
     20 N         -6.207458   3.746284   -4.208011 N.3        1 UNL1     -0.3018
     21 C         -6.948524   2.931652   -3.242836 C.3        1 UNL1     0.0026
     22 C         -6.158093   1.641855   -3.015815 C.3        1 UNL1     0.0016
     23 C         -6.662257   5.116282   -4.338034 C.3        1 UNL1     0.0012
     24 C         -8.189558   5.16352   -4.501977 C.3        1 UNL1     -0.0339
     25 C         -8.633548   6.415237   -5.276662 C.3        1 UNL1     -0.0615
     26 C         -8.681472   3.890223   -5.167945 C.3        1 UNL1     -0.0615
     27 C         -6.543285   -4.079671   -7.605542 C.ar        1 UNL1     0.1347
     28 C         -5.571115   -4.966391   -7.17815 C.ar        1 UNL1     0.0342
     29 C         -4.850903   -4.541377   -6.041567 C.ar        1 UNL1     0.1435
     30 C         -5.066108   -3.307009   -5.427366 C.ar        1 UNL1     0.0774
     31 O         -3.797053   -5.243952   -5.571679 O.3        1 UNL1     -0.4436
     32 C         -3.065765   -4.306375   -4.767291 C.3        1 UNL1     0.3143
     33 C         -4.077956   -3.250835   -4.370405 C.2        1 UNL1     0.2504
     34 C         -5.130458   -6.207966   -7.902314 C.3        1 UNL1     -0.0327
     35 O         -2.679062   -4.985966   -3.566512 O.2        1 UNL1     -0.4528
     36 C         0.575768   -3.375644   -2.461508 C.3        1 UNL1     0.0854
     37 C         0.878502   -1.862386   -2.136048 C.3        1 UNL1     0.0236
     38 C         1.504403   -1.595515   -0.683886 C.3        1 UNL1     0.1131
     39 C         0.805588   -2.207008   0.59674 C.3        1 UNL1     0.0200
     40 C         -0.853183   -2.149197   0.762793 C.3        1 UNL1     0.0661
     41 C         -1.82422   -0.772397   0.564999 C.3        1 UNL1     0.0091
     42 C         -3.544408   -0.607887   -0.050868 C.3        1 UNL1     0.0661
     43 C         -7.710845   -1.865071   -7.606638 C.2        1 UNL1     0.2131
     44 O         -8.131394   -1.938383   -8.747033 O.2        1 UNL1     -0.2851
     45 O         -7.373172   -4.440008   -8.665203 O.3        1 UNL1     -0.5056
     46 O         -4.079954   -2.539322   -3.390814 O.2        1 UNL1     -0.2836
     47 C         -5.620551   -2.041496   0.816434 C.3        1 UNL1     -0.0566
     48 O         -3.977675   0.276888   1.05754 O.3        1 UNL1     -0.3909
     49 C         -1.008476   0.307109   -0.110813 C.3        1 UNL1     -0.0577
     50 O         -1.458712   -3.261688   0.13556 O.3        1 UNL1     -0.3910
     51 O         0.72478   -4.278227   -1.388861 O.3        1 UNL1     -0.3753
     52 C         -0.183304   -0.906799   -2.771948 C.3        1 UNL1     -0.0564
     53 O         2.102168   -0.227586   -0.529702 O.3        1 UNL1     -0.4608
     54 C         2.323691   0.41375   0.660905 C.2        1 UNL1     0.3042
     55 O         1.561269   0.485121   1.623951 O.2        1 UNL1     -0.2512
     56 C         3.688083   1.033622   0.765343 C.3        1 UNL1     0.0332
     57 C         1.540836   -3.586575   0.934942 C.3        1 UNL1     -0.0567
     58 C         -2.011162   -3.661792   -5.696728 C.3        1 UNL1     0.0210
     59 C         0.904775   -5.640674   -1.772532 C.3        1 UNL1     0.0372
     60 C         -0.762985   -3.634965   -3.057875 C.2        1 UNL1     -0.0208
     61 C         -1.665604   -4.576547   -2.779579 C.2        1 UNL1     0.0882
     62 H         -4.784728   -1.985439   -1.153992 H        1 UNL1     0.0365
     63 H         -6.453199   -1.966553   -2.331309 H        1 UNL1     0.0576
     64 H         -8.454261   0.180224   -1.391164 H        1 UNL1     0.0615
     65 H         -8.420722   -1.774462   -3.827541 H        1 UNL1     0.0622
     66 H         1.307802   -3.643086   -3.236522 H        1 UNL1     0.0645
     67 H         1.730712   -1.612457   -2.791664 H        1 UNL1     0.0362
     68 H         2.45284   -2.14415   -0.788715 H        1 UNL1     0.0741
     69 H         1.150221   -1.670666   1.470796 H        1 UNL1     0.0359
     70 H         -0.943837   -2.359022   1.845759 H        1 UNL1     0.0600
     71 H         -1.850683   -0.402942   1.608915 H        1 UNL1     0.0348
     72 H         -3.427094   -1.660938   0.243476 H        1 UNL1     0.0602
     73 H         -0.899987   -3.0003   -3.897923 H        1 UNL1     0.0628
     74 H         -1.62825   -5.227426   -1.905395 H        1 UNL1     0.1022
     75 H         -11.242277   1.134976   -3.310242 H        1 UNL1     0.0279
     76 H         -10.898878   1.490173   -4.956211 H        1 UNL1     0.0279
     77 H         -12.064809   0.190024   -4.481327 H        1 UNL1     0.0279
     78 H         -9.272273   0.745694   -6.368491 H        1 UNL1     0.1553
     79 H         -7.973575   1.479437   -5.06418 H        1 UNL1     0.1484
     80 H         -4.221397   2.008078   -4.779238 H        1 UNL1     0.0317
     81 H         -4.978653   1.322242   -6.209663 H        1 UNL1     0.0317
     82 H         -6.897123   2.929401   -6.035832 H        1 UNL1     0.0428
     83 H         -5.347594   3.73497   -6.144103 H        1 UNL1     0.0428
     84 H         -7.053449   3.402543   -2.26046 H        1 UNL1     0.0428
     85 H         -7.983762   2.755476   -3.566195 H        1 UNL1     0.0428
     86 H         -6.656903   1.134426   -2.211022 H        1 UNL1     0.0317
     87 H         -5.172064   1.875611   -2.596053 H        1 UNL1     0.0317
     88 H         -6.392514   5.654289   -3.41984 H        1 UNL1     0.0429
     89 H         -6.158799   5.626376   -5.169363 H        1 UNL1     0.0429
     90 H         -8.656839   5.182625   -3.510263 H        1 UNL1     0.0308
     91 H         -8.684808   6.220071   -6.352015 H        1 UNL1     0.0233
     92 H         -9.609962   6.759385   -4.927682 H        1 UNL1     0.0233
     93 H         -7.94513   7.257785   -5.138718 H        1 UNL1     0.0233
     94 H         -9.131165   4.121616   -6.139577 H        1 UNL1     0.0233
     95 H         -7.84264   3.209542   -5.338233 H        1 UNL1     0.0233
     96 H         -9.429511   3.381728   -4.553258 H        1 UNL1     0.0233
     97 H         -5.890029   -6.983724   -7.880356 H        1 UNL1     0.0280
     98 H         -4.926211   -6.017317   -8.964007 H        1 UNL1     0.0280
     99 H         -4.216781   -6.605512   -7.430884 H        1 UNL1     0.0280
     100 H         -7.065107   -4.170997   -9.51276 H        1 UNL1     0.2922
     101 H         -4.780468   -2.021055   1.510335 H        1 UNL1     0.0236
     102 H         -5.965094   -3.056449   0.621132 H        1 UNL1     0.0236
     103 H         -6.449112   -1.564319   1.365962 H        1 UNL1     0.0236
     104 H         -4.300593   -0.294201   1.7818 H        1 UNL1     0.2098
     105 H         -1.206778   0.420825   -1.173619 H        1 UNL1     0.0234
     106 H         -1.037554   1.277374   0.384837 H        1 UNL1     0.0234
     107 H         0.0   0.0   0.0 H        1 UNL1     0.0234
     108 H         -2.399612   -3.039861   -0.003249 H        1 UNL1     0.2098
     109 H         -1.20062   -1.118477   -2.414215 H        1 UNL1     0.0234
     110 H         0.045601   0.153407   -2.619272 H        1 UNL1     0.0234
     111 H         -0.223507   -1.015886   -3.863933 H        1 UNL1     0.0234
     112 H         4.410708   0.287121   1.108702 H        1 UNL1     0.0342
     113 H         4.006836   1.482798   -0.174061 H        1 UNL1     0.0342
     114 H         3.645311   1.832336   1.518598 H        1 UNL1     0.0342
     115 H         2.629924   -3.461545   1.008708 H        1 UNL1     0.0234
     116 H         1.200746   -4.055661   1.860332 H        1 UNL1     0.0234
     117 H         1.466448   -4.334376   0.126733 H        1 UNL1     0.0234
     118 H         -1.861757   -2.590727   -5.474232 H        1 UNL1     0.0309
     119 H         -1.043232   -4.172129   -5.667221 H        1 UNL1     0.0309
     120 H         -2.321429   -3.660606   -6.747366 H        1 UNL1     0.0309
     121 H         -0.070953   -6.124542   -1.738124 H        1 UNL1     0.0524
     122 H         1.287619   -5.738315   -2.802063 H        1 UNL1     0.0524
     123 H         1.5925   -6.134997   -1.092258 H        1 UNL1     0.0524
@<TRIPOS>BOND
     1     1     2    1
     2     1    42    1
     3     2     3    2
     4     3     4    1
     5     4     5    2
     6     5     7    1
     7     6    75    1
     8     6    76    1
     9     6    77    1
    10     7     9   am
    11     9    10    1
    12    10    11    2
    13    10    43    1
    14    11    14    1
    15    11    15    1
    16    12    13   ar
    17    12    27   ar
    18    12    43    1
    19    13    14    1
    20    13    30   ar
    21    14    17    2
    22    15    16    1
    23    16    17    1
    24    16    18    1
    25    16    22    1
    26    18    19    1
    27    19    20    1
    28    20    21    1
    29    21    22    1
    30    23    24    1
    31    23    88    1
    32    23    89    1
    33    24    25    1
    34    24    26    1
    35    24    90    1
    36    25    91    1
    37    25    92    1
    38    25    93    1
    39    26    94    1
    40    26    95    1
    41    26    96    1
    42    27    28   ar
    43    28    29   ar
    44    29    30   ar
    45    29    31    1
    46    30    33    1
    47    31    32    1
    48    32    33    1
    49    32    35    1
    50    34    97    1
    51    34    98    1
    52    34    99    1
    53    35    61    1
    54    36    37    1
    55    36    60    1
    56    37    38    1
    57    38    39    1
    58    39    40    1
    59    40    41    1
    60    41    42    1
    61    45   100    1
    62    47   101    1
    63    47   102    1
    64    47   103    1
    65    48   104    1
    66    49   105    1
    67    49   106    1
    68    49   107    1
    69    50   108    1
    70    51    59    1
    71    52   109    1
    72    52   110    1
    73    52   111    1
    74    53    54    1
    75    54    55    2
    76    54    56    1
    77    56   112    1
    78    56   113    1
    79    56   114    1
    80    57   115    1
    81    57   116    1
    82    57   117    1
    83    58   118    1
    84    58   119    1
    85    58   120    1
    86    59   121    1
    87    59   122    1
    88    59   123    1
    89    60    61    2
    90     1    47    1
    91     1    62    1
    92     2    63    1
    93     3    64    1
    94     4    65    1
    95     5     6    1
    96     7     8    2
    97     9    78    1
    98    15    79    1
    99    18    80    1
   100    18    81    1
   101    19    82    1
   102    19    83    1
   103    20    23    1
   104    21    84    1
   105    21    85    1
   106    22    86    1
   107    22    87    1
   108    27    45    1
   109    28    34    1
   110    32    58    1
   111    33    46    2
   112    36    51    1
   113    36    66    1
   114    37    52    1
   115    37    67    1
   116    38    53    1
   117    38    68    1
   118    42    48    1
   119    42    72    1
   120    43    44    2
   121    60    73    1
   122    61    74    1
   123    39    69    1
   124    39    57    1
   125    40    70    1
   126    40    50    1
   127    41    71    1
   128    41    49    1
