@<TRIPOS>MOLECULE
*****
 123 128 0 0 0
SMALL
GASTEIGER

@<TRIPOS>ATOM
     1 C         4.360995   1.732713   2.826868 C.3        1 UNL1     0.0009
     2 C         6.051774   1.303542   3.454654 C.2        1 UNL1     -0.0787
     3 C         6.924083   0.895612   4.535726 C.2        1 UNL1     -0.0649
     4 C         8.570411   0.509035   4.454992 C.2        1 UNL1     -0.0542
     5 C         9.638975   -0.160014   5.10123 C.2        1 UNL1     0.0115
     6 C         10.066968   -0.866456   6.416937 C.3        1 UNL1     -0.0348
     7 C         10.954767   -0.520625   4.255277 C.2        1 UNL1     0.2441
     8 O         11.991955   0.123584   4.331184 O.2        1 UNL1     -0.2702
     9 N         10.921889   -1.774776   3.621102 N.am        1 UNL1     -0.2772
     10 C         10.348335   -1.667852   2.374938 C.2        1 UNL1     0.1049
     11 C         9.028308   -1.687755   2.338111 C.2        1 UNL1     0.0801
     12 C         10.425434   -0.327563   0.264248 C.ar        1 UNL1     0.0753
     13 C         9.00481   -0.201556   0.384909 C.ar        1 UNL1     0.0305
     14 C         8.246417   -0.988924   1.354415 C.2        1 UNL1     0.0924
     15 N         8.142085   -2.005427   3.297393 N.pl3        1 UNL1     -0.3170
     16 C         6.835245   -2.034585   2.696085 C.3        1 UNL1     0.1275
     17 N         6.93161   -1.074104   1.53595 N.2        1 UNL1     -0.2557
     18 C         6.649684   -3.419989   2.08459 C.3        1 UNL1     0.0016
     19 C         6.865   -4.46323   3.169429 C.3        1 UNL1     0.0026
     20 N         5.905228   -4.230072   4.239711 N.3        1 UNL1     -0.3018
     21 C         5.965146   -2.900162   4.849725 C.3        1 UNL1     0.0026
     22 C         5.741732   -1.868092   3.743013 C.3        1 UNL1     0.0016
     23 C         5.822948   -5.335042   5.17401 C.3        1 UNL1     0.0012
     24 C         5.152966   -6.550173   4.513451 C.3        1 UNL1     -0.0339
     25 C         4.315591   -7.349698   5.525192 C.3        1 UNL1     -0.0615
     26 C         4.317948   -6.103008   3.326199 C.3        1 UNL1     -0.0615
     27 C         11.125931   0.334576   -0.741234 C.ar        1 UNL1     0.1347
     28 C         10.512578   1.115639   -1.704451 C.ar        1 UNL1     0.0342
     29 C         9.119459   1.264585   -1.53653 C.ar        1 UNL1     0.1435
     30 C         8.409299   0.63649   -0.512621 C.ar        1 UNL1     0.0774
     31 O         8.363268   1.904208   -2.45526 O.3        1 UNL1     -0.4436
     32 C         7.024858   1.450629   -2.202681 C.3        1 UNL1     0.3143
     33 C         7.027557   0.993343   -0.758003 C.2        1 UNL1     0.2504
     34 C         11.160916   1.648065   -2.951961 C.3        1 UNL1     -0.0327
     35 O         6.166122   2.595357   -2.276326 O.2        1 UNL1     -0.4528
     36 C         2.807125   1.300736   -3.480147 C.3        1 UNL1     0.0854
     37 C         1.881312   0.192287   -2.846323 C.3        1 UNL1     0.0236
     38 C         0.378633   0.661021   -2.539745 C.3        1 UNL1     0.1131
     39 C         0.122298   1.991531   -1.723469 C.3        1 UNL1     0.0200
     40 C         1.027375   2.337353   -0.365647 C.3        1 UNL1     0.0661
     41 C         1.314454   1.28333   0.932133 C.3        1 UNL1     0.0091
     42 C         2.77176   1.122703   2.034793 C.3        1 UNL1     0.0661
     43 C         11.117389   -1.257862   1.190532 C.2        1 UNL1     0.2131
     44 O         12.207243   -1.749863   0.960556 O.2        1 UNL1     -0.2851
     45 O         12.512163   0.195244   -0.76087 O.3        1 UNL1     -0.5056
     46 O         6.102041   0.953681   0.021549 O.2        1 UNL1     -0.2836
     47 C         3.945841   3.145547   3.318325 C.3        1 UNL1     -0.0566
     48 O         1.968353   1.091231   3.280852 O.3        1 UNL1     -0.3909
     49 C         0.915574   -0.116531   0.52131 C.3        1 UNL1     -0.0577
     50 O         2.220986   3.008144   -0.716443 O.3        1 UNL1     -0.3910
     51 O         2.262338   2.599732   -3.537141 O.3        1 UNL1     -0.3753
     52 C         2.674362   -0.743437   -1.876559 C.3        1 UNL1     -0.0564
     53 O         -0.563304   -0.477001   -2.275198 O.3        1 UNL1     -0.4608
     54 C         -1.582326   -0.469141   -1.358976 C.2        1 UNL1     0.3042
     55 O         -1.594302   -1.003262   -0.25064 O.2        1 UNL1     -0.2512
     56 C         -2.770322   0.344206   -1.787749 C.3        1 UNL1     0.0332
     57 C         -0.114521   3.167997   -2.780833 C.3        1 UNL1     -0.0567
     58 C         6.80002   0.221947   -3.114447 C.3        1 UNL1     0.0210
     59 C         1.895881   3.039195   -4.844217 C.3        1 UNL1     0.0372
     60 C         4.153351   1.426784   -2.858094 C.2        1 UNL1     -0.0208
     61 C         4.839862   2.511122   -2.495248 C.2        1 UNL1     0.0882
     62 H         4.787021   1.862645   1.824705 H        1 UNL1     0.0365
     63 H         6.655185   1.501989   2.566406 H        1 UNL1     0.0576
     64 H         6.531132   0.634725   5.520934 H        1 UNL1     0.0615
     65 H         8.877101   0.878923   3.472848 H        1 UNL1     0.0622
     66 H         2.981868   0.95867   -4.509953 H        1 UNL1     0.0645
     67 H         1.723352   -0.527304   -3.668393 H        1 UNL1     0.0362
     68 H         0.040858   0.877838   -3.564645 H        1 UNL1     0.0741
     69 H         -0.887923   1.973439   -1.336774 H        1 UNL1     0.0359
     70 H         0.393615   3.121267   0.091394 H        1 UNL1     0.0600
     71 H         0.473722   1.562187   1.597238 H        1 UNL1     0.0348
     72 H         2.844188   2.121329   1.580022 H        1 UNL1     0.0602
     73 H         4.616938   0.471971   -2.832269 H        1 UNL1     0.0628
     74 H         4.420266   3.516056   -2.437943 H        1 UNL1     0.1022
     75 H         9.204676   -0.935706   7.123118 H        1 UNL1     0.0279
     76 H         10.382564   -1.903729   6.330142 H        1 UNL1     0.0279
     77 H         10.781874   -0.272764   7.005274 H        1 UNL1     0.0279
     78 H         10.352513   -2.418842   4.166141 H        1 UNL1     0.1553
     79 H         8.374988   -2.534129   4.117859 H        1 UNL1     0.1484
     80 H         5.64255   -3.489698   1.656119 H        1 UNL1     0.0317
     81 H         7.3528   -3.5813   1.260419 H        1 UNL1     0.0317
     82 H         7.89621   -4.446098   3.551823 H        1 UNL1     0.0428
     83 H         6.72977   -5.443551   2.711461 H        1 UNL1     0.0428
     84 H         5.18291   -2.723574   5.594531 H        1 UNL1     0.0428
     85 H         6.901171   -2.746625   5.404343 H        1 UNL1     0.0428
     86 H         5.659347   -0.920797   4.242846 H        1 UNL1     0.0317
     87 H         4.749557   -2.006491   3.296324 H        1 UNL1     0.0317
     88 H         6.84444   -5.61389   5.463996 H        1 UNL1     0.0429
     89 H         5.296512   -5.04288   6.091769 H        1 UNL1     0.0429
     90 H         5.9278   -7.208847   4.103579 H        1 UNL1     0.0308
     91 H         3.691821   -6.689414   6.135141 H        1 UNL1     0.0233
     92 H         3.677416   -8.073127   5.012365 H        1 UNL1     0.0233
     93 H         4.938419   -7.928443   6.217994 H        1 UNL1     0.0233
     94 H         3.438057   -6.746618   3.219459 H        1 UNL1     0.0233
     95 H         3.969195   -5.077921   3.479593 H        1 UNL1     0.0233
     96 H         4.891814   -6.145189   2.396217 H        1 UNL1     0.0233
     97 H         10.653478   1.310545   -3.850748 H        1 UNL1     0.0280
     98 H         11.143997   2.745072   -2.991266 H        1 UNL1     0.0280
     99 H         12.208247   1.307345   -2.997806 H        1 UNL1     0.0280
     100 H         12.932413   0.344252   0.06787 H        1 UNL1     0.2922
     101 H         4.027631   3.858777   2.498405 H        1 UNL1     0.0236
     102 H         4.496167   3.471448   4.200318 H        1 UNL1     0.0236
     103 H         2.885377   3.184576   3.618465 H        1 UNL1     0.0236
     104 H         1.046155   0.884767   3.032067 H        1 UNL1     0.2098
     105 H         1.619203   -0.606014   -0.147363 H        1 UNL1     0.0234
     106 H         0.657928   -0.777858   1.34847 H        1 UNL1     0.0234
     107 H         -0.0   0.0   0.0 H        1 UNL1     0.0234
     108 H         2.808204   2.98237   0.063479 H        1 UNL1     0.2098
     109 H         3.487235   -1.278613   -2.386986 H        1 UNL1     0.0234
     110 H         3.073791   -0.218112   -1.002355 H        1 UNL1     0.0234
     111 H         2.029365   -1.521858   -1.447624 H        1 UNL1     0.0234
     112 H         -3.535594   0.325993   -1.005845 H        1 UNL1     0.0342
     113 H         -2.496143   1.366872   -2.042354 H        1 UNL1     0.0342
     114 H         -3.19711   -0.119839   -2.68757 H        1 UNL1     0.0342
     115 H         -0.840374   3.906773   -2.414043 H        1 UNL1     0.0234
     116 H         0.793883   3.708184   -3.054786 H        1 UNL1     0.0234
     117 H         -0.604283   2.83162   -3.710846 H        1 UNL1     0.0234
     118 H         6.08275   0.434029   -3.926575 H        1 UNL1     0.0309
     119 H         7.726982   -0.166864   -3.547773 H        1 UNL1     0.0309
     120 H         6.338521   -0.617295   -2.582659 H        1 UNL1     0.0309
     121 H         1.93796   4.128027   -4.849829 H        1 UNL1     0.0524
     122 H         2.592322   2.676072   -5.618264 H        1 UNL1     0.0524
     123 H         0.892196   2.701618   -5.086605 H        1 UNL1     0.0524
@<TRIPOS>BOND
     1     1     2    1
     2     1    42    1
     3     2     3    2
     4     3     4    1
     5     4     5    2
     6     5     7    1
     7     6    75    1
     8     6    76    1
     9     6    77    1
    10     7     9   am
    11     9    10    1
    12    10    11    2
    13    10    43    1
    14    11    14    1
    15    11    15    1
    16    12    13   ar
    17    12    27   ar
    18    12    43    1
    19    13    14    1
    20    13    30   ar
    21    14    17    2
    22    15    16    1
    23    16    17    1
    24    16    18    1
    25    16    22    1
    26    18    19    1
    27    19    20    1
    28    20    21    1
    29    21    22    1
    30    23    24    1
    31    23    88    1
    32    23    89    1
    33    24    25    1
    34    24    26    1
    35    24    90    1
    36    25    91    1
    37    25    92    1
    38    25    93    1
    39    26    94    1
    40    26    95    1
    41    26    96    1
    42    27    28   ar
    43    28    29   ar
    44    29    30   ar
    45    29    31    1
    46    30    33    1
    47    31    32    1
    48    32    33    1
    49    32    35    1
    50    34    97    1
    51    34    98    1
    52    34    99    1
    53    35    61    1
    54    36    37    1
    55    36    60    1
    56    37    38    1
    57    38    39    1
    58    39    40    1
    59    40    41    1
    60    41    42    1
    61    45   100    1
    62    47   101    1
    63    47   102    1
    64    47   103    1
    65    48   104    1
    66    49   105    1
    67    49   106    1
    68    49   107    1
    69    50   108    1
    70    51    59    1
    71    52   109    1
    72    52   110    1
    73    52   111    1
    74    53    54    1
    75    54    55    2
    76    54    56    1
    77    56   112    1
    78    56   113    1
    79    56   114    1
    80    57   115    1
    81    57   116    1
    82    57   117    1
    83    58   118    1
    84    58   119    1
    85    58   120    1
    86    59   121    1
    87    59   122    1
    88    59   123    1
    89    60    61    2
    90     1    47    1
    91     1    62    1
    92     2    63    1
    93     3    64    1
    94     4    65    1
    95     5     6    1
    96     7     8    2
    97     9    78    1
    98    15    79    1
    99    18    80    1
   100    18    81    1
   101    19    82    1
   102    19    83    1
   103    20    23    1
   104    21    84    1
   105    21    85    1
   106    22    86    1
   107    22    87    1
   108    27    45    1
   109    28    34    1
   110    32    58    1
   111    33    46    2
   112    36    51    1
   113    36    66    1
   114    37    52    1
   115    37    67    1
   116    38    53    1
   117    38    68    1
   118    42    48    1
   119    42    72    1
   120    43    44    2
   121    60    73    1
   122    61    74    1
   123    39    69    1
   124    39    57    1
   125    40    70    1
   126    40    50    1
   127    41    71    1
   128    41    49    1
