@<TRIPOS>MOLECULE
*****
 123 128 0 0 0
SMALL
GASTEIGER

@<TRIPOS>ATOM
     1 C         5.166811   1.75004   0.490607 C.3        1 UNL1     0.0009
     2 C         6.603082   2.556789   -0.359874 C.2        1 UNL1     -0.0787
     3 C         7.884832   2.459146   -1.025929 C.2        1 UNL1     -0.0649
     4 C         8.76177   3.694731   -1.781354 C.2        1 UNL1     -0.0542
     5 C         9.781498   3.98793   -2.720113 C.2        1 UNL1     0.0115
     6 C         10.909663   3.363047   -3.586189 C.3        1 UNL1     -0.0348
     7 C         9.876295   5.471392   -3.326201 C.2        1 UNL1     0.2441
     8 O         10.700045   6.29315   -2.948476 O.2        1 UNL1     -0.2702
     9 N         9.125744   5.678503   -4.496641 N.am        1 UNL1     -0.2772
     10 C         7.842998   6.064745   -4.182472 C.2        1 UNL1     0.1049
     11 C         6.997542   5.093018   -3.890628 C.2        1 UNL1     0.0801
     12 C         6.544502   7.670628   -2.770955 C.ar        1 UNL1     0.0753
     13 C         5.785853   6.542376   -2.323622 C.ar        1 UNL1     0.0305
     14 C         5.902986   5.236898   -2.969422 C.2        1 UNL1     0.0924
     15 N         7.120484   3.76412   -4.050139 N.pl3        1 UNL1     -0.3170
     16 C         5.850859   3.164515   -3.735844 C.3        1 UNL1     0.1275
     17 N         5.214431   4.119287   -2.755492 N.2        1 UNL1     -0.2557
     18 C         4.9977   3.223729   -4.999297 C.3        1 UNL1     0.0016
     19 C         5.752502   2.540174   -6.128287 C.3        1 UNL1     0.0026
     20 N         6.023105   1.162031   -5.742899 N.3        1 UNL1     -0.3018
     21 C         6.786795   1.001476   -4.503799 C.3        1 UNL1     0.0026
     22 C         6.008126   1.691455   -3.382416 C.3        1 UNL1     0.0016
     23 C         6.467573   0.342941   -6.852936 C.3        1 UNL1     0.0012
     24 C         5.311966   0.093444   -7.834811 C.3        1 UNL1     -0.0339
     25 C         5.347132   1.085948   -9.00859 C.3        1 UNL1     -0.0615
     26 C         5.341342   -1.345903   -8.318751 C.3        1 UNL1     -0.0615
     27 C         6.339626   8.938108   -2.230918 C.ar        1 UNL1     0.1347
     28 C         5.380721   9.207115   -1.270613 C.ar        1 UNL1     0.0342
     29 C         4.679573   8.07234   -0.810349 C.ar        1 UNL1     0.1435
     30 C         4.899243   6.790521   -1.316219 C.ar        1 UNL1     0.0774
     31 O         3.638752   8.185376   0.04342 O.3        1 UNL1     -0.4436
     32 C         2.917373   6.952403   -0.098931 C.3        1 UNL1     0.3143
     33 C         3.930812   5.959726   -0.631611 C.2        1 UNL1     0.2504
     34 C         4.933618   10.572969   -0.829432 C.3        1 UNL1     -0.0327
     35 O         2.557167   6.515222   1.217267 O.2        1 UNL1     -0.4528
     36 C         -0.685453   4.582278   0.820747 C.3        1 UNL1     0.0854
     37 C         -0.990634   3.321872   -0.076896 C.3        1 UNL1     0.0236
     38 C         -1.590661   2.060438   0.710821 C.3        1 UNL1     0.1131
     39 C         -0.864446   1.529324   2.011898 C.3        1 UNL1     0.0200
     40 C         0.796795   1.384214   2.052623 C.3        1 UNL1     0.0661
     41 C         1.756089   0.615979   0.883358 C.3        1 UNL1     0.0091
     42 C         3.463442   0.979157   0.319046 C.3        1 UNL1     0.0661
     43 C         7.494329   7.463504   -3.892199 C.2        1 UNL1     0.2131
     44 O         7.893796   8.361895   -4.610569 O.2        1 UNL1     -0.2851
     45 O         7.151504   9.973565   -2.689308 O.3        1 UNL1     -0.5056
     46 O         3.947156   4.756159   -0.501181 O.2        1 UNL1     -0.2836
     47 C         5.563638   1.320261   1.928591 C.3        1 UNL1     -0.0566
     48 O         3.912404   -0.431851   0.400321 O.3        1 UNL1     -0.3909
     49 C         0.921662   0.383516   -0.356475 C.3        1 UNL1     -0.0577
     50 O         1.396762   2.602126   2.445627 O.3        1 UNL1     -0.3910
     51 O         -0.809151   4.392177   2.212146 O.3        1 UNL1     -0.3753
     52 C         0.053582   3.162006   -1.22972 C.3        1 UNL1     -0.0564
     53 O         -2.193205   1.021547   -0.189163 O.3        1 UNL1     -0.4608
     54 C         -2.427183   -0.285363   0.150205 C.2        1 UNL1     0.3042
     55 O         -1.857925   -1.284218   -0.288056 O.2        1 UNL1     -0.2512
     56 C         -3.466894   -0.451587   1.221692 C.3        1 UNL1     0.0332
     57 C         -1.585344   2.19777   3.273508 C.3        1 UNL1     -0.0567
     58 C         1.841846   7.19751   -1.182764 C.3        1 UNL1     0.0210
     59 C         -1.122481   5.570891   2.952634 C.3        1 UNL1     0.0372
     60 C         0.643318   5.211781   0.58998 C.2        1 UNL1     -0.0208
     61 C         1.556352   5.647015   1.459282 C.2        1 UNL1     0.0882
     62 H         4.69065   2.734062   0.578266 H        1 UNL1     0.0365
     63 H         6.336581   3.610488   -0.25421 H        1 UNL1     0.0576
     64 H         8.342689   1.49248   -1.247359 H        1 UNL1     0.0615
     65 H         8.27453   4.609902   -1.434161 H        1 UNL1     0.0622
     66 H         -1.430379   5.328694   0.510916 H        1 UNL1     0.0645
     67 H         -1.856417   3.631176   -0.687888 H        1 UNL1     0.0362
     68 H         -2.53776   2.496965   1.062915 H        1 UNL1     0.0741
     69 H         -1.195652   0.518084   2.207102 H        1 UNL1     0.0359
     70 H         0.908966   0.72367   2.933622 H        1 UNL1     0.0600
     71 H         1.800049   -0.405293   1.310008 H        1 UNL1     0.0348
     72 H         3.357676   1.467064   1.29888 H        1 UNL1     0.0602
     73 H         0.760902   5.409347   -0.446548 H        1 UNL1     0.0628
     74 H         1.53913   5.436052   2.529065 H        1 UNL1     0.1022
     75 H         10.935859   2.254348   -3.45529 H        1 UNL1     0.0279
     76 H         10.80917   3.469372   -4.663995 H        1 UNL1     0.0279
     77 H         11.91554   3.645733   -3.242679 H        1 UNL1     0.0279
     78 H         9.063842   4.808682   -5.021671 H        1 UNL1     0.1553
     79 H         7.785712   3.336474   -4.667815 H        1 UNL1     0.1484
     80 H         4.036598   2.732487   -4.805055 H        1 UNL1     0.0317
     81 H         4.770749   4.260496   -5.269961 H        1 UNL1     0.0317
     82 H         6.682961   3.07179   -6.376363 H        1 UNL1     0.0428
     83 H         5.12711   2.595395   -7.019851 H        1 UNL1     0.0428
     84 H         6.907469   -0.041528   -4.194944 H        1 UNL1     0.0428
     85 H         7.816764   1.36981   -4.607777 H        1 UNL1     0.0428
     86 H         6.524844   1.440982   -2.474533 H        1 UNL1     0.0317
     87 H         5.028839   1.213525   -3.257209 H        1 UNL1     0.0317
     88 H         7.26336   0.885092   -7.38028 H        1 UNL1     0.0429
     89 H         6.900508   -0.602812   -6.502375 H        1 UNL1     0.0429
     90 H         4.359035   0.212123   -7.305612 H        1 UNL1     0.0308
     91 H         6.30018   1.035568   -9.543626 H        1 UNL1     0.0233
     92 H         4.532117   0.885947   -9.708132 H        1 UNL1     0.0233
     93 H         5.220809   2.124936   -8.680896 H        1 UNL1     0.0233
     94 H         4.646677   -1.477328   -9.155413 H        1 UNL1     0.0233
     95 H         6.344828   -1.601443   -8.67043 H        1 UNL1     0.0233
     96 H         5.058796   -2.040414   -7.522641 H        1 UNL1     0.0233
     97 H         4.134185   10.522915   -0.096199 H        1 UNL1     0.0280
     98 H         5.743918   11.139617   -0.352376 H        1 UNL1     0.0280
     99 H         4.568378   11.141018   -1.700647 H        1 UNL1     0.0280
     100 H         6.684205   10.724661   -3.010413 H        1 UNL1     0.2922
     101 H         4.697924   0.897671   2.438113 H        1 UNL1     0.0236
     102 H         6.025446   2.122195   2.503585 H        1 UNL1     0.0236
     103 H         6.310926   0.509242   1.927061 H        1 UNL1     0.0236
     104 H         4.331877   -0.558053   1.273869 H        1 UNL1     0.2098
     105 H         0.708629   1.282443   -0.929501 H        1 UNL1     0.0234
     106 H         1.291094   -0.404233   -1.012904 H        1 UNL1     0.0234
     107 H         0.0   -0.0   0.0 H        1 UNL1     0.0234
     108 H         1.203256   3.25885   1.74918 H        1 UNL1     0.2098
     109 H         1.07999   3.061095   -0.850225 H        1 UNL1     0.0234
     110 H         -0.172143   2.327411   -1.902211 H        1 UNL1     0.0234
     111 H         0.065583   4.039769   -1.889519 H        1 UNL1     0.0234
     112 H         -3.589943   -1.512562   1.459468 H        1 UNL1     0.0342
     113 H         -3.229909   0.124114   2.11514 H        1 UNL1     0.0342
     114 H         -4.424508   -0.080744   0.831031 H        1 UNL1     0.0342
     115 H         -2.654891   1.949198   3.311819 H        1 UNL1     0.0234
     116 H         -1.148566   1.917873   4.234202 H        1 UNL1     0.0234
     117 H         -1.62425   3.299629   3.225181 H        1 UNL1     0.0234
     118 H         0.940124   7.682656   -0.769802 H        1 UNL1     0.0309
     119 H         2.210414   7.787115   -2.028179 H        1 UNL1     0.0309
     120 H         1.454523   6.265596   -1.608936 H        1 UNL1     0.0309
     121 H         -0.301656   6.274314   2.815524 H        1 UNL1     0.0524
     122 H         -2.0425   6.059781   2.591265 H        1 UNL1     0.0524
     123 H         -1.24012   5.332841   4.006004 H        1 UNL1     0.0524
@<TRIPOS>BOND
     1     1     2    1
     2     1    42    1
     3     2     3    2
     4     3     4    1
     5     4     5    2
     6     5     7    1
     7     6    75    1
     8     6    76    1
     9     6    77    1
    10     7     9   am
    11     9    10    1
    12    10    11    2
    13    10    43    1
    14    11    14    1
    15    11    15    1
    16    12    13   ar
    17    12    27   ar
    18    12    43    1
    19    13    14    1
    20    13    30   ar
    21    14    17    2
    22    15    16    1
    23    16    17    1
    24    16    18    1
    25    16    22    1
    26    18    19    1
    27    19    20    1
    28    20    21    1
    29    21    22    1
    30    23    24    1
    31    23    88    1
    32    23    89    1
    33    24    25    1
    34    24    26    1
    35    24    90    1
    36    25    91    1
    37    25    92    1
    38    25    93    1
    39    26    94    1
    40    26    95    1
    41    26    96    1
    42    27    28   ar
    43    28    29   ar
    44    29    30   ar
    45    29    31    1
    46    30    33    1
    47    31    32    1
    48    32    33    1
    49    32    35    1
    50    34    97    1
    51    34    98    1
    52    34    99    1
    53    35    61    1
    54    36    37    1
    55    36    60    1
    56    37    38    1
    57    38    39    1
    58    39    40    1
    59    40    41    1
    60    41    42    1
    61    45   100    1
    62    47   101    1
    63    47   102    1
    64    47   103    1
    65    48   104    1
    66    49   105    1
    67    49   106    1
    68    49   107    1
    69    50   108    1
    70    51    59    1
    71    52   109    1
    72    52   110    1
    73    52   111    1
    74    53    54    1
    75    54    55    2
    76    54    56    1
    77    56   112    1
    78    56   113    1
    79    56   114    1
    80    57   115    1
    81    57   116    1
    82    57   117    1
    83    58   118    1
    84    58   119    1
    85    58   120    1
    86    59   121    1
    87    59   122    1
    88    59   123    1
    89    60    61    2
    90     1    47    1
    91     1    62    1
    92     2    63    1
    93     3    64    1
    94     4    65    1
    95     5     6    1
    96     7     8    2
    97     9    78    1
    98    15    79    1
    99    18    80    1
   100    18    81    1
   101    19    82    1
   102    19    83    1
   103    20    23    1
   104    21    84    1
   105    21    85    1
   106    22    86    1
   107    22    87    1
   108    27    45    1
   109    28    34    1
   110    32    58    1
   111    33    46    2
   112    36    51    1
   113    36    66    1
   114    37    52    1
   115    37    67    1
   116    38    53    1
   117    38    68    1
   118    42    48    1
   119    42    72    1
   120    43    44    2
   121    60    73    1
   122    61    74    1
   123    39    69    1
   124    39    57    1
   125    40    70    1
   126    40    50    1
   127    41    71    1
   128    41    49    1
