@<TRIPOS>MOLECULE
*****
 123 128 0 0 0
SMALL
GASTEIGER

@<TRIPOS>ATOM
     1 C         -1.996766   -0.450943   -3.620457 C.3        1 UNL1     0.0009
     2 C         -1.437207   0.125384   -5.291318 C.2        1 UNL1     -0.0787
     3 C         -1.499185   1.08288   -6.375479 C.2        1 UNL1     -0.0649
     4 C         -0.540514   1.139576   -7.769786 C.2        1 UNL1     -0.0542
     5 C         -0.076788   1.960294   -8.827358 C.2        1 UNL1     0.0115
     6 C         -0.261015   3.337013   -9.523079 C.3        1 UNL1     -0.0348
     7 C         1.215064   1.497758   -9.660526 C.2        1 UNL1     0.2441
     8 O         1.14388   0.991108   -10.771725 O.2        1 UNL1     -0.2702
     9 N         2.441858   1.950075   -9.144254 N.am        1 UNL1     -0.2772
     10 C         2.927187   1.062044   -8.211957 C.2        1 UNL1     0.1049
     11 C         2.443604   1.180164   -6.988675 C.2        1 UNL1     0.0801
     12 C         3.384766   -1.36859   -7.837828 C.ar        1 UNL1     0.0753
     13 C         2.664717   -1.234506   -6.608129 C.ar        1 UNL1     0.0305
     14 C         2.284887   0.074973   -6.082729 C.2        1 UNL1     0.0924
     15 N         1.704771   2.161375   -6.442893 N.pl3        1 UNL1     -0.3170
     16 C         1.587281   1.891412   -5.0345 C.3        1 UNL1     0.1275
     17 N         1.709941   0.391123   -4.925832 N.2        1 UNL1     -0.2557
     18 C         2.827713   2.46778   -4.358606 C.3        1 UNL1     0.0016
     19 C         2.930679   3.943785   -4.708455 C.3        1 UNL1     0.0026
     20 N         1.723633   4.618231   -4.251081 N.3        1 UNL1     -0.3018
     21 C         0.471854   4.092598   -4.799833 C.3        1 UNL1     0.0026
     22 C         0.386935   2.610081   -4.432643 C.3        1 UNL1     0.0016
     23 C         1.845347   6.062415   -4.263777 C.3        1 UNL1     0.0012
     24 C         0.523353   6.710505   -4.70431 C.3        1 UNL1     -0.0339
     25 C         -0.452152   6.855932   -3.524777 C.3        1 UNL1     -0.0615
     26 C         0.795786   8.046976   -5.372445 C.3        1 UNL1     -0.0615
     27 C         3.848392   -2.608483   -8.271226 C.ar        1 UNL1     0.1347
     28 C         3.688049   -3.774379   -7.543882 C.ar        1 UNL1     0.0342
     29 C         2.933754   -3.62636   -6.360542 C.ar        1 UNL1     0.1435
     30 C         2.431906   -2.396863   -5.931933 C.ar        1 UNL1     0.0774
     31 O         2.784057   -4.646738   -5.487946 O.3        1 UNL1     -0.4436
     32 C         2.402287   -4.017032   -4.255633 C.3        1 UNL1     0.3143
     33 C         1.802331   -2.685683   -4.660326 C.2        1 UNL1     0.2504
     34 C         4.370213   -5.085653   -7.818314 C.3        1 UNL1     -0.0327
     35 O         1.342365   -4.797291   -3.689054 O.2        1 UNL1     -0.4528
     36 C         1.643793   -4.386516   0.072394 C.3        1 UNL1     0.0854
     37 C         1.624304   -3.066403   0.935206 C.3        1 UNL1     0.0236
     38 C         0.52521   -3.038196   2.102657 C.3        1 UNL1     0.1131
     39 C         -0.981174   -3.389461   1.771463 C.3        1 UNL1     0.0200
     40 C         -1.709742   -2.777835   0.401229 C.3        1 UNL1     0.0661
     41 C         -1.705071   -1.152828   -0.085538 C.3        1 UNL1     0.0091
     42 C         -1.71602   -0.413439   -1.764403 C.3        1 UNL1     0.0661
     43 C         3.699388   -0.130127   -8.592467 C.2        1 UNL1     0.2131
     44 O         4.603309   -0.04788   -9.404194 O.2        1 UNL1     -0.2851
     45 O         4.500349   -2.659323   -9.501594 O.3        1 UNL1     -0.5056
     46 O         0.974464   -2.023373   -4.075658 O.2        1 UNL1     -0.2836
     47 C         -3.416845   -1.071451   -3.711716 C.3        1 UNL1     -0.0566
     48 O         -2.7944   0.556148   -1.454381 O.3        1 UNL1     -0.3909
     49 C         -0.665079   -0.405399   0.718986 C.3        1 UNL1     -0.0577
     50 O         -1.469009   -3.616083   -0.711026 O.3        1 UNL1     -0.3910
     51 O         0.59362   -5.295606   0.313478 O.3        1 UNL1     -0.3753
     52 C         1.955076   -1.803715   0.074301 C.3        1 UNL1     -0.0564
     53 O         0.75124   -1.952821   3.114189 O.3        1 UNL1     -0.4608
     54 C         0.280799   -1.95495   4.401283 C.2        1 UNL1     0.3042
     55 O         -0.887534   -2.070869   4.769251 O.2        1 UNL1     -0.2512
     56 C         1.363906   -1.857148   5.437636 C.3        1 UNL1     0.0332
     57 C         -1.199241   -4.938859   2.103106 C.3        1 UNL1     -0.0567
     58 C         3.710793   -3.757396   -3.473372 C.3        1 UNL1     0.0210
     59 C         -0.697467   -4.840269   -0.088553 C.3        1 UNL1     0.0372
     60 C         1.698773   -4.174802   -1.399786 C.2        1 UNL1     -0.0208
     61 C         1.013898   -4.759747   -2.383417 C.2        1 UNL1     0.0882
     62 H         -1.286367   -1.283459   -3.6909 H        1 UNL1     0.0365
     63 H         -0.774457   -0.693847   -5.577837 H        1 UNL1     0.0576
     64 H         -2.098057   1.993369   -6.301527 H        1 UNL1     0.0615
     65 H         -0.050669   0.162253   -7.789168 H        1 UNL1     0.0622
     66 H         2.58917   -4.878283   0.341606 H        1 UNL1     0.0645
     67 H         2.561307   -3.112517   1.516979 H        1 UNL1     0.0362
     68 H         0.890688   -3.873268   2.719586 H        1 UNL1     0.0741
     69 H         -1.610032   -3.00792   2.564793 H        1 UNL1     0.0359
     70 H         -2.772455   -2.954035   0.655505 H        1 UNL1     0.0600
     71 H         -2.64128   -0.804891   0.39343 H        1 UNL1     0.0348
     72 H         -2.071593   -1.446941   -1.885884 H        1 UNL1     0.0602
     73 H         2.505668   -3.523984   -1.629144 H        1 UNL1     0.0628
     74 H         0.13848   -5.392565   -2.233674 H        1 UNL1     0.1022
     75 H         -1.080315   3.2871   -10.280238 H        1 UNL1     0.0279
     76 H         -0.577685   4.162328   -8.889325 H        1 UNL1     0.0279
     77 H         0.598131   3.614392   -10.151276 H        1 UNL1     0.0279
     78 H         2.307087   2.843388   -8.675312 H        1 UNL1     0.1553
     79 H         1.635638   3.085866   -6.826912 H        1 UNL1     0.1484
     80 H         2.746904   2.317636   -3.275235 H        1 UNL1     0.0317
     81 H         3.730803   1.939001   -4.681828 H        1 UNL1     0.0317
     82 H         3.085194   4.09681   -5.786704 H        1 UNL1     0.0428
     83 H         3.822748   4.334403   -4.217861 H        1 UNL1     0.0428
     84 H         -0.422787   4.562987   -4.380115 H        1 UNL1     0.0428
     85 H         0.389153   4.278077   -5.879683 H        1 UNL1     0.0428
     86 H         -0.595024   2.293474   -4.731815 H        1 UNL1     0.0317
     87 H         0.369543   2.494573   -3.342023 H        1 UNL1     0.0317
     88 H         2.07438   6.394844   -3.242832 H        1 UNL1     0.0429
     89 H         2.677381   6.386871   -4.901916 H        1 UNL1     0.0429
     90 H         0.053453   6.082769   -5.470701 H        1 UNL1     0.0308
     91 H         -1.492208   6.833545   -3.863723 H        1 UNL1     0.0233
     92 H         -0.295939   6.059135   -2.793804 H        1 UNL1     0.0233
     93 H         -0.314424   7.799405   -2.982812 H        1 UNL1     0.0233
     94 H         0.968179   7.904967   -6.444802 H        1 UNL1     0.0233
     95 H         -0.068341   8.706756   -5.254387 H        1 UNL1     0.0233
     96 H         1.674602   8.536038   -4.942947 H        1 UNL1     0.0233
     97 H         4.056343   -5.861007   -7.125825 H        1 UNL1     0.0280
     98 H         4.142404   -5.468635   -8.821651 H        1 UNL1     0.0280
     99 H         5.461455   -4.960494   -7.725463 H        1 UNL1     0.0280
     100 H         3.974984   -2.390109   -10.23449 H        1 UNL1     0.2922
     101 H         -3.602272   -1.417402   -4.728373 H        1 UNL1     0.0236
     102 H         -4.200541   -0.402321   -3.358064 H        1 UNL1     0.0236
     103 H         -3.51513   -1.974566   -3.086483 H        1 UNL1     0.0236
     104 H         -3.446617   0.514168   -2.180894 H        1 UNL1     0.2098
     105 H         -1.059948   0.418155   1.308604 H        1 UNL1     0.0234
     106 H         -0.02452   -1.037296   1.334061 H        1 UNL1     0.0234
     107 H         0.0   0.0   0.0 H        1 UNL1     0.0234
     108 H         -2.044604   -3.307226   -1.43702 H        1 UNL1     0.2098
     109 H         3.031345   -1.582209   0.057179 H        1 UNL1     0.0234
     110 H         1.578643   -1.8719   -0.952048 H        1 UNL1     0.0234
     111 H         1.472493   -0.90256   0.475522 H        1 UNL1     0.0234
     112 H         1.613467   -2.85518   5.810459 H        1 UNL1     0.0342
     113 H         2.249214   -1.349187   5.058096 H        1 UNL1     0.0342
     114 H         0.978839   -1.26882   6.281886 H        1 UNL1     0.0342
     115 H         -2.202999   -5.280755   1.815416 H        1 UNL1     0.0234
     116 H         -0.476488   -5.601609   1.623065 H        1 UNL1     0.0234
     117 H         -1.199949   -5.161513   3.184016 H        1 UNL1     0.0234
     118 H         3.525506   -3.241146   -2.515165 H        1 UNL1     0.0309
     119 H         4.286004   -4.669162   -3.283588 H        1 UNL1     0.0309
     120 H         4.387577   -3.076119   -4.000564 H        1 UNL1     0.0309
     121 H         -1.365657   -4.947742   0.765453 H        1 UNL1     0.0524
     122 H         -0.69483   -3.775677   -0.376085 H        1 UNL1     0.0524
     123 H         -1.060502   -5.430537   -0.925144 H        1 UNL1     0.0524
@<TRIPOS>BOND
     1     1     2    1
     2     1    42    1
     3     2     3    2
     4     3     4    1
     5     4     5    2
     6     5     7    1
     7     6    75    1
     8     6    76    1
     9     6    77    1
    10     7     9   am
    11     9    10    1
    12    10    11    2
    13    10    43    1
    14    11    14    1
    15    11    15    1
    16    12    13   ar
    17    12    27   ar
    18    12    43    1
    19    13    14    1
    20    13    30   ar
    21    14    17    2
    22    15    16    1
    23    16    17    1
    24    16    18    1
    25    16    22    1
    26    18    19    1
    27    19    20    1
    28    20    21    1
    29    21    22    1
    30    23    24    1
    31    23    88    1
    32    23    89    1
    33    24    25    1
    34    24    26    1
    35    24    90    1
    36    25    91    1
    37    25    92    1
    38    25    93    1
    39    26    94    1
    40    26    95    1
    41    26    96    1
    42    27    28   ar
    43    28    29   ar
    44    29    30   ar
    45    29    31    1
    46    30    33    1
    47    31    32    1
    48    32    33    1
    49    32    35    1
    50    34    97    1
    51    34    98    1
    52    34    99    1
    53    35    61    1
    54    36    37    1
    55    36    60    1
    56    37    38    1
    57    38    39    1
    58    39    40    1
    59    40    41    1
    60    41    42    1
    61    45   100    1
    62    47   101    1
    63    47   102    1
    64    47   103    1
    65    48   104    1
    66    49   105    1
    67    49   106    1
    68    49   107    1
    69    50   108    1
    70    51    59    1
    71    52   109    1
    72    52   110    1
    73    52   111    1
    74    53    54    1
    75    54    55    2
    76    54    56    1
    77    56   112    1
    78    56   113    1
    79    56   114    1
    80    57   115    1
    81    57   116    1
    82    57   117    1
    83    58   118    1
    84    58   119    1
    85    58   120    1
    86    59   121    1
    87    59   122    1
    88    59   123    1
    89    60    61    2
    90     1    47    1
    91     1    62    1
    92     2    63    1
    93     3    64    1
    94     4    65    1
    95     5     6    1
    96     7     8    2
    97     9    78    1
    98    15    79    1
    99    18    80    1
   100    18    81    1
   101    19    82    1
   102    19    83    1
   103    20    23    1
   104    21    84    1
   105    21    85    1
   106    22    86    1
   107    22    87    1
   108    27    45    1
   109    28    34    1
   110    32    58    1
   111    33    46    2
   112    36    51    1
   113    36    66    1
   114    37    52    1
   115    37    67    1
   116    38    53    1
   117    38    68    1
   118    42    48    1
   119    42    72    1
   120    43    44    2
   121    60    73    1
   122    61    74    1
   123    39    69    1
   124    39    57    1
   125    40    70    1
   126    40    50    1
   127    41    71    1
   128    41    49    1
