@<TRIPOS>MOLECULE
*****
 123 128 0 0 0
SMALL
GASTEIGER

@<TRIPOS>ATOM
     1 C         0.521966   -1.53346   -3.917532 C.3        1 UNL1     0.0009
     2 C         -0.166461   -3.105876   -4.617969 C.2        1 UNL1     -0.0787
     3 C         0.017892   -4.475971   -5.047969 C.2        1 UNL1     -0.0649
     4 C         -1.16537   -5.575711   -5.554744 C.2        1 UNL1     -0.0542
     5 C         -1.470653   -6.945573   -5.748024 C.2        1 UNL1     0.0115
     6 C         -0.865269   -8.375952   -5.777179 C.3        1 UNL1     -0.0348
     7 C         -3.007967   -7.387102   -5.884806 C.2        1 UNL1     0.2441
     8 O         -3.532041   -7.64902   -6.95871 O.2        1 UNL1     -0.2702
     9 N         -3.639646   -7.705446   -4.669985 N.am        1 UNL1     -0.2772
     10 C         -4.184124   -6.576786   -4.101661 C.2        1 UNL1     0.1049
     11 C         -3.358357   -5.822593   -3.399147 C.2        1 UNL1     0.0801
     12 C         -5.621095   -4.594176   -4.613231 C.ar        1 UNL1     0.0753
     13 C         -4.591527   -3.794141   -4.022857 C.ar        1 UNL1     0.0305
     14 C         -3.487063   -4.395585   -3.278898 C.2        1 UNL1     0.0924
     15 N         -2.111649   -6.077858   -2.966612 N.pl3        1 UNL1     -0.3170
     16 C         -1.7178   -4.999106   -2.099761 C.3        1 UNL1     0.1275
     17 N         -2.510729   -3.812056   -2.589557 N.2        1 UNL1     -0.2557
     18 C         -2.252214   -5.319907   -0.707213 C.3        1 UNL1     0.0016
     19 C         -1.729534   -6.684767   -0.288224 C.3        1 UNL1     0.0026
     20 N         -0.27358   -6.650551   -0.295646 N.3        1 UNL1     -0.3018
     21 C         0.333302   -6.289766   -1.57857 C.3        1 UNL1     0.0026
     22 C         -0.202073   -4.913651   -1.978041 C.3        1 UNL1     0.0016
     23 C         0.320758   -7.793066   0.369236 C.3        1 UNL1     0.0012
     24 C         0.088126   -7.714507   1.886295 C.3        1 UNL1     -0.0339
     25 C         0.32659   -9.074401   2.562963 C.3        1 UNL1     -0.0615
     26 C         0.960513   -6.628418   2.491384 C.3        1 UNL1     -0.0615
     27 C         -6.732766   -4.010097   -5.215858 C.ar        1 UNL1     0.1347
     28 C         -6.943743   -2.643327   -5.25432 C.ar        1 UNL1     0.0342
     29 C         -5.893407   -1.87393   -4.710272 C.ar        1 UNL1     0.1435
     30 C         -4.756838   -2.444148   -4.13557 C.ar        1 UNL1     0.0774
     31 O         -5.998652   -0.534007   -4.574129 O.3        1 UNL1     -0.4436
     32 C         -5.006427   -0.189883   -3.595384 C.3        1 UNL1     0.3143
     33 C         -3.993247   -1.31556   -3.645687 C.2        1 UNL1     0.2504
     34 C         -8.221039   -1.959289   -5.655203 C.3        1 UNL1     -0.0327
     35 O         -4.341288   0.991153   -4.060138 O.2        1 UNL1     -0.4528
     36 C         -3.247401   2.863611   -0.944789 C.3        1 UNL1     0.0854
     37 C         -2.33112   2.373788   0.241814 C.3        1 UNL1     0.0236
     38 C         -1.060453   3.304563   0.543157 C.3        1 UNL1     0.1131
     39 C         -0.094156   3.720593   -0.638137 C.3        1 UNL1     0.0200
     40 C         0.383352   2.596871   -1.774655 C.3        1 UNL1     0.0661
     41 C         1.01716   1.058206   -1.445401 C.3        1 UNL1     0.0091
     42 C         0.873505   -0.513166   -2.381114 C.3        1 UNL1     0.0661
     43 C         -5.509993   -6.068326   -4.483622 C.2        1 UNL1     0.2131
     44 O         -6.458956   -6.825611   -4.57702 O.2        1 UNL1     -0.2851
     45 O         -7.666395   -4.858725   -5.807131 O.3        1 UNL1     -0.5056
     46 O         -2.815787   -1.282638   -3.365763 O.2        1 UNL1     -0.2836
     47 C         1.360151   -0.786911   -4.989955 C.3        1 UNL1     -0.0566
     48 O         2.32173   -0.823082   -2.30553 O.3        1 UNL1     -0.3909
     49 C         0.769075   0.729414   0.00988 C.3        1 UNL1     -0.0577
     50 O         -0.557417   2.516962   -2.826459 O.3        1 UNL1     -0.3910
     51 O         -2.751432   3.945901   -1.699836 O.3        1 UNL1     -0.3753
     52 C         -2.253851   0.813619   0.311456 C.3        1 UNL1     -0.0564
     53 O         -0.41403   3.027581   1.868956 O.3        1 UNL1     -0.4608
     54 C         0.933038   3.058637   2.118707 C.2        1 UNL1     0.3042
     55 O         1.832545   2.587856   1.42366 O.2        1 UNL1     -0.2512
     56 C         1.296179   3.812859   3.3661 C.3        1 UNL1     0.0332
     57 C         -0.563348   5.157184   -1.161816 C.3        1 UNL1     -0.0567
     58 C         -5.717521   -0.219708   -2.222437 C.3        1 UNL1     0.0210
     59 C         -3.428348   5.184089   -1.488788 C.3        1 UNL1     0.0372
     60 C         -3.637467   1.805577   -1.916166 C.2        1 UNL1     -0.0208
     61 C         -3.656799   1.820939   -3.249634 C.2        1 UNL1     0.0882
     62 H         -0.485104   -1.100501   -3.950237 H        1 UNL1     0.0365
     63 H         -1.193636   -2.801794   -4.829901 H        1 UNL1     0.0576
     64 H         0.972157   -4.99217   -4.921383 H        1 UNL1     0.0615
     65 H         -2.045853   -4.950544   -5.726204 H        1 UNL1     0.0622
     66 H         -4.179472   3.185249   -0.459158 H        1 UNL1     0.0645
     67 H         -2.945927   2.54325   1.142844 H        1 UNL1     0.0362
     68 H         -1.576748   4.23093   0.837786 H        1 UNL1     0.0741
     69 H         0.847592   4.048264   -0.218433 H        1 UNL1     0.0359
     70 H         1.247902   3.12818   -2.216609 H        1 UNL1     0.0600
     71 H         2.099486   1.293536   -1.433284 H        1 UNL1     0.0348
     72 H         0.628921   0.287695   -3.093937 H        1 UNL1     0.0602
     73 H         -4.054993   0.984082   -1.388847 H        1 UNL1     0.0628
     74 H         -3.198503   2.596591   -3.864097 H        1 UNL1     0.1022
     75 H         0.068566   -8.394001   -6.389275 H        1 UNL1     0.0279
     76 H         -0.529035   -8.779944   -4.824915 H        1 UNL1     0.0279
     77 H         -1.495752   -9.093548   -6.322382 H        1 UNL1     0.0279
     78 H         -2.9547   -8.077961   -4.015646 H        1 UNL1     0.1553
     79 H         -1.724663   -7.001005   -2.896094 H        1 UNL1     0.1484
     80 H         -1.929306   -4.536386   -0.011087 H        1 UNL1     0.0317
     81 H         -3.347451   -5.315594   -0.697834 H        1 UNL1     0.0317
     82 H         -2.110005   -7.484326   -0.940802 H        1 UNL1     0.0428
     83 H         -2.124036   -6.894457   0.706487 H        1 UNL1     0.0428
     84 H         1.422694   -6.193372   -1.536797 H        1 UNL1     0.0428
     85 H         0.162785   -7.06076   -2.342643 H        1 UNL1     0.0428
     86 H         0.360161   -4.625243   -2.846777 H        1 UNL1     0.0317
     87 H         0.087717   -4.166873   -1.228746 H        1 UNL1     0.0317
     88 H         -0.164711   -8.700861   -0.012236 H        1 UNL1     0.0429
     89 H         1.390037   -7.878135   0.136473 H        1 UNL1     0.0429
     90 H         -0.947221   -7.407129   2.075473 H        1 UNL1     0.0308
     91 H         0.71713   -9.809124   1.852496 H        1 UNL1     0.0233
     92 H         1.026279   -8.973954   3.396003 H        1 UNL1     0.0233
     93 H         -0.59284   -9.497701   2.985218 H        1 UNL1     0.0233
     94 H         1.67865   -7.067563   3.19229 H        1 UNL1     0.0233
     95 H         1.525006   -6.120791   1.704222 H        1 UNL1     0.0233
     96 H         0.361083   -5.888478   3.029102 H        1 UNL1     0.0233
     97 H         -8.612055   -1.329078   -4.862 H        1 UNL1     0.0280
     98 H         -8.083013   -1.300188   -6.522261 H        1 UNL1     0.0280
     99 H         -8.98318   -2.716298   -5.902535 H        1 UNL1     0.0280
     100 H         -7.298086   -5.505561   -6.382956 H        1 UNL1     0.2922
     101 H         1.818608   0.097556   -4.548149 H        1 UNL1     0.0236
     102 H         0.791768   -0.547591   -5.888092 H        1 UNL1     0.0236
     103 H         2.209115   -1.393022   -5.347842 H        1 UNL1     0.0236
     104 H         2.735491   -0.158336   -1.720821 H        1 UNL1     0.2098
     105 H         1.625424   0.303017   0.526275 H        1 UNL1     0.0234
     106 H         0.342732   1.54444   0.594595 H        1 UNL1     0.0234
     107 H         0.0   0.0   0.0 H        1 UNL1     0.0234
     108 H         -0.212703   1.874052   -3.475772 H        1 UNL1     0.2098
     109 H         -3.239013   0.355276   0.476047 H        1 UNL1     0.0234
     110 H         -1.78438   0.366119   -0.571201 H        1 UNL1     0.0234
     111 H         -1.625827   0.476389   1.146805 H        1 UNL1     0.0234
     112 H         1.379616   4.881084   3.144109 H        1 UNL1     0.0342
     113 H         0.586644   3.635737   4.172965 H        1 UNL1     0.0342
     114 H         2.280403   3.461482   3.70522 H        1 UNL1     0.0342
     115 H         0.287035   5.768603   -1.493786 H        1 UNL1     0.0234
     116 H         -1.280167   5.117478   -1.9844 H        1 UNL1     0.0234
     117 H         -0.989189   5.796678   -0.369573 H        1 UNL1     0.0234
     118 H         -5.829276   0.790591   -1.791378 H        1 UNL1     0.0309
     119 H         -6.698159   -0.704848   -2.256957 H        1 UNL1     0.0309
     120 H         -5.140282   -0.756463   -1.461651 H        1 UNL1     0.0309
     121 H         -4.180179   5.286293   -2.270875 H        1 UNL1     0.0524
     122 H         -3.952069   5.214551   -0.518826 H        1 UNL1     0.0524
     123 H         -2.724292   6.010057   -1.535426 H        1 UNL1     0.0524
@<TRIPOS>BOND
     1     1     2    1
     2     1    42    1
     3     2     3    2
     4     3     4    1
     5     4     5    2
     6     5     7    1
     7     6    75    1
     8     6    76    1
     9     6    77    1
    10     7     9   am
    11     9    10    1
    12    10    11    2
    13    10    43    1
    14    11    14    1
    15    11    15    1
    16    12    13   ar
    17    12    27   ar
    18    12    43    1
    19    13    14    1
    20    13    30   ar
    21    14    17    2
    22    15    16    1
    23    16    17    1
    24    16    18    1
    25    16    22    1
    26    18    19    1
    27    19    20    1
    28    20    21    1
    29    21    22    1
    30    23    24    1
    31    23    88    1
    32    23    89    1
    33    24    25    1
    34    24    26    1
    35    24    90    1
    36    25    91    1
    37    25    92    1
    38    25    93    1
    39    26    94    1
    40    26    95    1
    41    26    96    1
    42    27    28   ar
    43    28    29   ar
    44    29    30   ar
    45    29    31    1
    46    30    33    1
    47    31    32    1
    48    32    33    1
    49    32    35    1
    50    34    97    1
    51    34    98    1
    52    34    99    1
    53    35    61    1
    54    36    37    1
    55    36    60    1
    56    37    38    1
    57    38    39    1
    58    39    40    1
    59    40    41    1
    60    41    42    1
    61    45   100    1
    62    47   101    1
    63    47   102    1
    64    47   103    1
    65    48   104    1
    66    49   105    1
    67    49   106    1
    68    49   107    1
    69    50   108    1
    70    51    59    1
    71    52   109    1
    72    52   110    1
    73    52   111    1
    74    53    54    1
    75    54    55    2
    76    54    56    1
    77    56   112    1
    78    56   113    1
    79    56   114    1
    80    57   115    1
    81    57   116    1
    82    57   117    1
    83    58   118    1
    84    58   119    1
    85    58   120    1
    86    59   121    1
    87    59   122    1
    88    59   123    1
    89    60    61    2
    90     1    47    1
    91     1    62    1
    92     2    63    1
    93     3    64    1
    94     4    65    1
    95     5     6    1
    96     7     8    2
    97     9    78    1
    98    15    79    1
    99    18    80    1
   100    18    81    1
   101    19    82    1
   102    19    83    1
   103    20    23    1
   104    21    84    1
   105    21    85    1
   106    22    86    1
   107    22    87    1
   108    27    45    1
   109    28    34    1
   110    32    58    1
   111    33    46    2
   112    36    51    1
   113    36    66    1
   114    37    52    1
   115    37    67    1
   116    38    53    1
   117    38    68    1
   118    42    48    1
   119    42    72    1
   120    43    44    2
   121    60    73    1
   122    61    74    1
   123    39    69    1
   124    39    57    1
   125    40    70    1
   126    40    50    1
   127    41    71    1
   128    41    49    1
