@<TRIPOS>MOLECULE
*****
 123 128 0 0 0
SMALL
GASTEIGER

@<TRIPOS>ATOM
     1 C         4.969114   2.245294   0.527732 C.3        1 UNL1     0.0009
     2 C         6.354236   3.125466   -0.33469 C.2        1 UNL1     -0.0787
     3 C         7.666173   3.106895   -0.946672 C.2        1 UNL1     -0.0649
     4 C         8.44932   4.363496   -1.767643 C.2        1 UNL1     -0.0542
     5 C         9.474028   4.685654   -2.691367 C.2        1 UNL1     0.0115
     6 C         10.693041   4.11344   -3.465899 C.3        1 UNL1     -0.0348
     7 C         9.449023   6.120891   -3.410019 C.2        1 UNL1     0.2441
     8 O         10.172161   7.047523   -3.070977 O.2        1 UNL1     -0.2702
     9 N         8.731552   6.162198   -4.618192 N.am        1 UNL1     -0.2772
     10 C         7.405224   6.440293   -4.379779 C.2        1 UNL1     0.1049
     11 C         6.647075   5.413467   -4.040574 C.2        1 UNL1     0.0801
     12 C         5.898328   8.009943   -3.145763 C.ar        1 UNL1     0.0753
     13 C         5.235244   6.848348   -2.636228 C.ar        1 UNL1     0.0305
     14 C         5.506075   5.516062   -3.171684 C.2        1 UNL1     0.0924
     15 N         6.905591   4.0954   -4.089506 N.pl3        1 UNL1     -0.3170
     16 C         5.688441   3.396817   -3.772048 C.3        1 UNL1     0.1275
     17 N         4.921429   4.354372   -2.893125 N.2        1 UNL1     -0.2557
     18 C         4.88726   3.274041   -5.064618 C.3        1 UNL1     0.0016
     19 C         5.751756   2.586172   -6.109162 C.3        1 UNL1     0.0026
     20 N         6.139073   1.275401   -5.606278 N.3        1 UNL1     -0.3018
     21 C         6.862192   1.286806   -4.332961 C.3        1 UNL1     0.0026
     22 C         5.973656   1.978073   -3.297322 C.3        1 UNL1     0.0016
     23 C         6.707411   0.423329   -6.631758 C.3        1 UNL1     0.0012
     24 C         8.219198   0.668488   -6.758856 C.3        1 UNL1     -0.0339
     25 C         8.694764   0.507674   -8.212139 C.3        1 UNL1     -0.0615
     26 C         8.57344   2.036787   -6.202934 C.3        1 UNL1     -0.0615
     27 C         5.548386   9.287698   -2.715645 C.ar        1 UNL1     0.1347
     28 C         4.528431   9.531018   -1.813128 C.ar        1 UNL1     0.0342
     29 C         3.922617   8.369712   -1.288227 C.ar        1 UNL1     0.1435
     30 C         4.287236   7.081808   -1.682659 C.ar        1 UNL1     0.0774
     31 O         2.840883   8.441994   -0.48223 O.3        1 UNL1     -0.4436
     32 C         2.249775   7.13555   -0.550552 C.3        1 UNL1     0.3143
     33 C         3.376607   6.212216   -0.967585 C.2        1 UNL1     0.2504
     34 C         3.93218   10.874532   -1.497603 C.3        1 UNL1     -0.0327
     35 O         1.879091   6.765442   0.783189 O.2        1 UNL1     -0.4528
     36 C         -1.140111   4.491981   0.431219 C.3        1 UNL1     0.0854
     37 C         -1.283053   3.142879   -0.373152 C.3        1 UNL1     0.0236
     38 C         -1.789685   1.890908   0.491509 C.3        1 UNL1     0.1131
     39 C         -1.070292   1.535634   1.854786 C.3        1 UNL1     0.0200
     40 C         0.594011   1.561693   1.963673 C.3        1 UNL1     0.0661
     41 C         1.671788   0.807311   0.892733 C.3        1 UNL1     0.0091
     42 C         3.357726   1.296376   0.359973 C.3        1 UNL1     0.0661
     43 C         6.909964   7.814898   -4.21385 C.2        1 UNL1     0.2131
     44 O         7.249667   8.691818   -4.987381 O.2        1 UNL1     -0.2851
     45 O         6.273911   10.361745   -3.226992 O.3        1 UNL1     -0.5056
     46 O         3.50476   5.029753   -0.741285 O.2        1 UNL1     -0.2836
     47 C         5.345363   1.967831   2.008081 C.3        1 UNL1     -0.0566
     48 O         3.938341   -0.052134   0.568598 O.3        1 UNL1     -0.3909
     49 C         0.916688   0.398851   -0.352449 C.3        1 UNL1     -0.0577
     50 O         1.05536   2.86   2.278757 O.3        1 UNL1     -0.3910
     51 O         -1.302868   4.396454   1.828293 O.3        1 UNL1     -0.3753
     52 C         -0.180846   3.001807   -1.473237 C.3        1 UNL1     -0.0564
     53 O         -2.249813   0.731501   -0.342987 O.3        1 UNL1     -0.4608
     54 C         -2.053739   -0.591249   -0.043293 C.2        1 UNL1     0.3042
     55 O         -1.222845   -1.353423   -0.53578 O.2        1 UNL1     -0.2512
     56 C         -2.944554   -1.097434   1.055314 C.3        1 UNL1     0.0332
     57 C         -1.905158   2.221977   3.033813 C.3        1 UNL1     -0.0567
     58 C         1.20183   7.188463   -1.686572 C.3        1 UNL1     0.0210
     59 C         -2.518669   4.950199   2.329351 C.3        1 UNL1     0.0372
     60 C         0.129437   5.2325   0.196615 C.2        1 UNL1     -0.0208
     61 C         0.958452   5.821924   1.059204 C.2        1 UNL1     0.0882
     62 H         4.396014   3.180288   0.520466 H        1 UNL1     0.0365
     63 H         5.982061   4.152016   -0.322402 H        1 UNL1     0.0576
     64 H         8.224985   2.177137   -1.07468 H        1 UNL1     0.0615
     65 H         7.861043   5.248751   -1.51125 H        1 UNL1     0.0622
     66 H         -1.940635   5.134117   0.037685 H        1 UNL1     0.0645
     67 H         -2.148509   3.316403   -1.036052 H        1 UNL1     0.0362
     68 H         -2.788754   2.255491   0.77517 H        1 UNL1     0.0741
     69 H         -1.309194   0.513957   2.118432 H        1 UNL1     0.0359
     70 H         0.73305   0.984468   2.897772 H        1 UNL1     0.0600
     71 H         1.797214   -0.169073   1.400572 H        1 UNL1     0.0348
     72 H         3.163927   1.844062   1.293674 H        1 UNL1     0.0602
     73 H         0.270518   5.361723   -0.847725 H        1 UNL1     0.0628
     74 H         0.917079   5.692016   2.14117 H        1 UNL1     0.1022
     75 H         11.355434   3.532064   -2.780136 H        1 UNL1     0.0279
     76 H         10.474556   3.390827   -4.248947 H        1 UNL1     0.0279
     77 H         11.379641   4.897458   -3.817461 H        1 UNL1     0.0279
     78 H         8.776817   5.253269   -5.074126 H        1 UNL1     0.1553
     79 H         7.634643   3.691169   -4.64809 H        1 UNL1     0.1484
     80 H         3.971351   2.70486   -4.864844 H        1 UNL1     0.0317
     81 H         4.571831   4.259236   -5.424544 H        1 UNL1     0.0317
     82 H         6.635513   3.188247   -6.366828 H        1 UNL1     0.0428
     83 H         5.161865   2.510517   -7.02314 H        1 UNL1     0.0428
     84 H         7.070953   0.28764   -3.938122 H        1 UNL1     0.0428
     85 H         7.854782   1.747821   -4.430672 H        1 UNL1     0.0428
     86 H         6.473844   1.850346   -2.355257 H        1 UNL1     0.0317
     87 H         5.04126   1.415036   -3.168005 H        1 UNL1     0.0317
     88 H         6.546476   -0.621485   -6.335517 H        1 UNL1     0.0429
     89 H         6.200731   0.566231   -7.594892 H        1 UNL1     0.0429
     90 H         8.754399   -0.056377   -6.13408 H        1 UNL1     0.0308
     91 H         8.030866   1.029438   -8.907915 H        1 UNL1     0.0233
     92 H         9.711051   0.890721   -8.330652 H        1 UNL1     0.0233
     93 H         8.724911   -0.542181   -8.527941 H        1 UNL1     0.0233
     94 H         9.525281   2.380056   -6.62246 H        1 UNL1     0.0233
     95 H         7.802787   2.762547   -6.477394 H        1 UNL1     0.0233
     96 H         8.664389   2.013504   -5.113368 H        1 UNL1     0.0233
     97 H         2.865213   10.903885   -1.697481 H        1 UNL1     0.0280
     98 H         4.046938   11.139796   -0.43849 H        1 UNL1     0.0280
     99 H         4.420319   11.648478   -2.112276 H        1 UNL1     0.0280
     100 H         5.938952   10.711839   -4.03375 H        1 UNL1     0.2922
     101 H         4.815656   2.663409   2.658648 H        1 UNL1     0.0236
     102 H         6.420093   1.978655   2.186467 H        1 UNL1     0.0236
     103 H         5.015638   0.968825   2.338932 H        1 UNL1     0.0236
     104 H         3.533332   -0.426033   1.375529 H        1 UNL1     0.2098
     105 H         0.685092   1.219542   -1.02672 H        1 UNL1     0.0234
     106 H         1.361977   -0.429052   -0.90401 H        1 UNL1     0.0234
     107 H         0.0   -0.0   0.0 H        1 UNL1     0.0234
     108 H         0.967647   2.972516   3.244891 H        1 UNL1     0.2098
     109 H         -0.230362   3.808777   -2.217589 H        1 UNL1     0.0234
     110 H         0.832747   2.944274   -1.062065 H        1 UNL1     0.0234
     111 H         -0.291713   2.067635   -2.039786 H        1 UNL1     0.0234
     112 H         -2.723424   -2.14961   1.258715 H        1 UNL1     0.0342
     113 H         -2.859282   -0.498191   1.960566 H        1 UNL1     0.0342
     114 H         -3.985621   -1.032722   0.710123 H        1 UNL1     0.0342
     115 H         -2.982454   2.233653   2.818211 H        1 UNL1     0.0234
     116 H         -1.770338   1.74738   4.00779 H        1 UNL1     0.0234
     117 H         -1.699167   3.300064   3.148864 H        1 UNL1     0.0234
     118 H         0.168911   7.131459   -1.300779 H        1 UNL1     0.0309
     119 H         1.299145   8.07598   -2.319854 H        1 UNL1     0.0309
     120 H         1.267874   6.326814   -2.359853 H        1 UNL1     0.0309
     121 H         -2.346448   5.240312   3.365465 H        1 UNL1     0.0524
     122 H         -2.824973   5.854687   1.777884 H        1 UNL1     0.0524
     123 H         -3.317236   4.215851   2.273503 H        1 UNL1     0.0524
@<TRIPOS>BOND
     1     1     2    1
     2     1    42    1
     3     2     3    2
     4     3     4    1
     5     4     5    2
     6     5     7    1
     7     6    75    1
     8     6    76    1
     9     6    77    1
    10     7     9   am
    11     9    10    1
    12    10    11    2
    13    10    43    1
    14    11    14    1
    15    11    15    1
    16    12    13   ar
    17    12    27   ar
    18    12    43    1
    19    13    14    1
    20    13    30   ar
    21    14    17    2
    22    15    16    1
    23    16    17    1
    24    16    18    1
    25    16    22    1
    26    18    19    1
    27    19    20    1
    28    20    21    1
    29    21    22    1
    30    23    24    1
    31    23    88    1
    32    23    89    1
    33    24    25    1
    34    24    26    1
    35    24    90    1
    36    25    91    1
    37    25    92    1
    38    25    93    1
    39    26    94    1
    40    26    95    1
    41    26    96    1
    42    27    28   ar
    43    28    29   ar
    44    29    30   ar
    45    29    31    1
    46    30    33    1
    47    31    32    1
    48    32    33    1
    49    32    35    1
    50    34    97    1
    51    34    98    1
    52    34    99    1
    53    35    61    1
    54    36    37    1
    55    36    60    1
    56    37    38    1
    57    38    39    1
    58    39    40    1
    59    40    41    1
    60    41    42    1
    61    45   100    1
    62    47   101    1
    63    47   102    1
    64    47   103    1
    65    48   104    1
    66    49   105    1
    67    49   106    1
    68    49   107    1
    69    50   108    1
    70    51    59    1
    71    52   109    1
    72    52   110    1
    73    52   111    1
    74    53    54    1
    75    54    55    2
    76    54    56    1
    77    56   112    1
    78    56   113    1
    79    56   114    1
    80    57   115    1
    81    57   116    1
    82    57   117    1
    83    58   118    1
    84    58   119    1
    85    58   120    1
    86    59   121    1
    87    59   122    1
    88    59   123    1
    89    60    61    2
    90     1    47    1
    91     1    62    1
    92     2    63    1
    93     3    64    1
    94     4    65    1
    95     5     6    1
    96     7     8    2
    97     9    78    1
    98    15    79    1
    99    18    80    1
   100    18    81    1
   101    19    82    1
   102    19    83    1
   103    20    23    1
   104    21    84    1
   105    21    85    1
   106    22    86    1
   107    22    87    1
   108    27    45    1
   109    28    34    1
   110    32    58    1
   111    33    46    2
   112    36    51    1
   113    36    66    1
   114    37    52    1
   115    37    67    1
   116    38    53    1
   117    38    68    1
   118    42    48    1
   119    42    72    1
   120    43    44    2
   121    60    73    1
   122    61    74    1
   123    39    69    1
   124    39    57    1
   125    40    70    1
   126    40    50    1
   127    41    71    1
   128    41    49    1
