@<TRIPOS>MOLECULE
*****
 123 128 0 0 0
SMALL
GASTEIGER

@<TRIPOS>ATOM
     1 C         1.325397   4.290521   -1.770258 C.3        1 UNL1     0.0009
     2 C         1.158906   5.096952   -3.431279 C.2        1 UNL1     -0.0787
     3 C         1.762494   5.64331   -4.62845 C.2        1 UNL1     -0.0649
     4 C         0.984085   6.203287   -6.02375 C.2        1 UNL1     -0.0542
     5 C         1.139509   6.499255   -7.400458 C.2        1 UNL1     0.0115
     6 C         2.18186   6.663769   -8.54053 C.3        1 UNL1     -0.0348
     7 C         -0.169885   6.62607   -8.320454 C.2        1 UNL1     0.2441
     8 O         -0.636294   7.701799   -8.669444 O.2        1 UNL1     -0.2702
     9 N         -0.592131   5.423256   -8.91299 N.am        1 UNL1     -0.2772
     10 C         -1.447305   4.748223   -8.072556 C.2        1 UNL1     0.1049
     11 C         -0.880343   4.011005   -7.134854 C.2        1 UNL1     0.0801
     12 C         -3.485817   5.052291   -6.655042 C.ar        1 UNL1     0.0753
     13 C         -2.748283   4.429079   -5.59851 C.ar        1 UNL1     0.0305
     14 C         -1.467529   3.770193   -5.844661 C.2        1 UNL1     0.0924
     15 N         0.402485   3.638153   -6.986999 N.pl3        1 UNL1     -0.3170
     16 C         0.464225   2.697729   -5.899779 C.3        1 UNL1     0.1275
     17 N         -0.702949   3.06459   -5.016127 N.2        1 UNL1     -0.2557
     18 C         0.14426   1.320961   -6.47409 C.3        1 UNL1     0.0016
     19 C         1.111843   1.031204   -7.610493 C.3        1 UNL1     0.0026
     20 N         2.471512   1.079074   -7.090842 N.3        1 UNL1     -0.3018
     21 C         2.85257   2.345509   -6.462108 C.3        1 UNL1     0.0026
     22 C         1.870382   2.61452   -5.320689 C.3        1 UNL1     0.0016
     23 C         3.446579   0.528234   -8.010877 C.3        1 UNL1     0.0012
     24 C         4.246645   1.653748   -8.685316 C.3        1 UNL1     -0.0339
     25 C         3.775598   3.039211   -8.213444 C.3        1 UNL1     -0.0615
     26 C         5.732427   1.455236   -8.440723 C.3        1 UNL1     -0.0615
     27 C         -4.759776   5.571595   -6.437166 C.ar        1 UNL1     0.1347
     28 C         -5.413302   5.49139   -5.220399 C.ar        1 UNL1     0.0342
     29 C         -4.648626   4.917461   -4.182593 C.ar        1 UNL1     0.1435
     30 C         -3.357353   4.425576   -4.377225 C.ar        1 UNL1     0.0774
     31 O         -5.183992   4.668665   -2.967484 O.3        1 UNL1     -0.4436
     32 C         -4.309116   3.694899   -2.37821 C.3        1 UNL1     0.3143
     33 C         -2.984736   3.86758   -3.09404 C.2        1 UNL1     0.2504
     34 C         -6.865195   5.796588   -4.977583 C.3        1 UNL1     -0.0327
     35 O         -4.099507   4.080657   -1.014206 O.2        1 UNL1     -0.4528
     36 C         -3.516647   0.855957   0.901433 C.3        1 UNL1     0.0854
     37 C         -2.425588   -0.258642   0.667377 C.3        1 UNL1     0.0236
     38 C         -1.520273   -0.597498   1.946958 C.3        1 UNL1     0.1131
     39 C         -0.813335   0.573844   2.740977 C.3        1 UNL1     0.0200
     40 C         -0.054365   1.812502   1.921143 C.3        1 UNL1     0.0661
     41 C         1.070485   1.629716   0.664595 C.3        1 UNL1     0.0091
     42 C         1.403749   2.686633   -0.797344 C.3        1 UNL1     0.0661
     43 C         -2.885752   5.047547   -8.012304 C.2        1 UNL1     0.2131
     44 O         -3.533979   5.174568   -9.035243 O.2        1 UNL1     -0.2851
     45 O         -5.390897   6.202547   -7.507224 O.3        1 UNL1     -0.5056
     46 O         -1.871038   3.621029   -2.688155 O.2        1 UNL1     -0.2836
     47 C         1.808229   5.322454   -0.715759 C.3        1 UNL1     -0.0566
     48 O         2.874712   2.679847   -0.609359 O.3        1 UNL1     -0.3909
     49 C         1.026346   0.199623   0.17431 C.3        1 UNL1     -0.0577
     50 O         -0.972328   2.83888   1.60237 O.3        1 UNL1     -0.3910
     51 O         -3.449769   1.533979   2.135631 O.3        1 UNL1     -0.3753
     52 C         -1.832226   -0.19759   -0.778009 C.3        1 UNL1     -0.0564
     53 O         -0.74618   -1.876264   1.81331 O.3        1 UNL1     -0.4608
     54 C         -0.679899   -2.867909   2.756802 C.2        1 UNL1     0.3042
     55 O         -1.211552   -2.87991   3.866324 O.2        1 UNL1     -0.2512
     56 C         0.096444   -4.073412   2.308732 C.3        1 UNL1     0.0332
     57 C         -1.760095   0.963589   3.969764 C.3        1 UNL1     -0.0567
     58 C         -4.892958   2.308506   -2.736782 C.3        1 UNL1     0.0210
     59 C         -4.41294   1.116316   3.101925 C.3        1 UNL1     0.0372
     60 C         -3.587478   1.898918   -0.15799 C.2        1 UNL1     -0.0208
     61 C         -3.684671   3.225453   -0.059993 C.2        1 UNL1     0.0882
     62 H         0.231598   4.257603   -1.697922 H        1 UNL1     0.0365
     63 H         0.07892   5.252562   -3.47471 H        1 UNL1     0.0576
     64 H         2.839326   5.587973   -4.80303 H        1 UNL1     0.0615
     65 H         -0.061826   6.296572   -5.719034 H        1 UNL1     0.0622
     66 H         -4.47421   0.318055   0.859221 H        1 UNL1     0.0645
     67 H         -3.010888   -1.188425   0.560198 H        1 UNL1     0.0362
     68 H         -2.29707   -0.982429   2.625144 H        1 UNL1     0.0741
     69 H         -0.011536   0.156832   3.335643 H        1 UNL1     0.0359
     70 H         0.559526   2.234837   2.739576 H        1 UNL1     0.0600
     71 H         2.012695   1.630496   1.247 H        1 UNL1     0.0348
     72 H         0.868624   3.323689   -0.078234 H        1 UNL1     0.0602
     73 H         -3.679463   1.428667   -1.105435 H        1 UNL1     0.0628
     74 H         -3.54393   3.787492   0.86388 H        1 UNL1     0.1022
     75 H         3.205522   6.40647   -8.175909 H        1 UNL1     0.0279
     76 H         2.067756   6.00774   -9.400574 H        1 UNL1     0.0279
     77 H         2.317257   7.711953   -8.844961 H        1 UNL1     0.0279
     78 H         0.212679   4.822375   -9.078222 H        1 UNL1     0.1553
     79 H         1.076651   3.655224   -7.730062 H        1 UNL1     0.1484
     80 H         0.227496   0.572747   -5.676585 H        1 UNL1     0.0317
     81 H         -0.88829   1.278702   -6.837005 H        1 UNL1     0.0317
     82 H         0.982112   1.735642   -8.445268 H        1 UNL1     0.0428
     83 H         0.86482   0.045787   -8.006706 H        1 UNL1     0.0428
     84 H         3.849094   2.328367   -6.009939 H        1 UNL1     0.0428
     85 H         2.904961   3.164911   -7.19228 H        1 UNL1     0.0428
     86 H         2.256308   3.472965   -4.802886 H        1 UNL1     0.0317
     87 H         1.937539   1.815374   -4.572389 H        1 UNL1     0.0317
     88 H         4.141313   -0.098985   -7.437087 H        1 UNL1     0.0429
     89 H         2.969154   -0.120095   -8.756872 H        1 UNL1     0.0429
     90 H         4.110744   1.589953   -9.771444 H        1 UNL1     0.0308
     91 H         4.623948   3.689488   -7.979896 H        1 UNL1     0.0233
     92 H         3.156623   3.517277   -8.976288 H        1 UNL1     0.0233
     93 H         3.158109   2.984592   -7.308701 H        1 UNL1     0.0233
     94 H         5.956143   1.555315   -7.373122 H        1 UNL1     0.0233
     95 H         6.032069   0.451639   -8.755317 H        1 UNL1     0.0233
     96 H         6.328766   2.189829   -8.989104 H        1 UNL1     0.0233
     97 H         -7.447303   5.763297   -5.893701 H        1 UNL1     0.0280
     98 H         -7.332419   5.071807   -4.298136 H        1 UNL1     0.0280
     99 H         -6.962659   6.804782   -4.542681 H        1 UNL1     0.0280
     100 H         -4.805371   6.566138   -8.147993 H        1 UNL1     0.2922
     101 H         2.432107   6.07537   -1.196955 H        1 UNL1     0.0236
     102 H         2.306476   4.86268   0.137084 H        1 UNL1     0.0236
     103 H         0.970349   5.890947   -0.278762 H        1 UNL1     0.0236
     104 H         3.092424   1.936945   -0.012979 H        1 UNL1     0.2098
     105 H         1.561539   0.027104   -0.756076 H        1 UNL1     0.0234
     106 H         1.310463   -0.545464   0.917311 H        1 UNL1     0.0234
     107 H         0.0   -0.0   0.0 H        1 UNL1     0.0234
     108 H         -0.714626   3.198435   0.731693 H        1 UNL1     0.2098
     109 H         -0.890516   -0.757335   -0.865066 H        1 UNL1     0.0234
     110 H         -2.534121   -0.539588   -1.546204 H        1 UNL1     0.0234
     111 H         -1.594169   0.832609   -1.074601 H        1 UNL1     0.0234
     112 H         -0.379015   -4.516091   1.428209 H        1 UNL1     0.0342
     113 H         1.141165   -3.837705   2.111644 H        1 UNL1     0.0342
     114 H         0.069815   -4.818182   3.116056 H        1 UNL1     0.0342
     115 H         -1.346378   0.621811   4.92852 H        1 UNL1     0.0234
     116 H         -1.95376   2.034394   4.058761 H        1 UNL1     0.0234
     117 H         -2.732289   0.441418   3.958932 H        1 UNL1     0.0234
     118 H         -4.158514   1.672359   -3.261105 H        1 UNL1     0.0309
     119 H         -5.279554   1.767235   -1.86743 H        1 UNL1     0.0309
     120 H         -5.723921   2.373427   -3.447692 H        1 UNL1     0.0309
     121 H         -5.255009   1.805738   3.047392 H        1 UNL1     0.0524
     122 H         -4.799032   0.103859   2.897229 H        1 UNL1     0.0524
     123 H         -3.978406   1.133367   4.097406 H        1 UNL1     0.0524
@<TRIPOS>BOND
     1     1     2    1
     2     1    42    1
     3     2     3    2
     4     3     4    1
     5     4     5    2
     6     5     7    1
     7     6    75    1
     8     6    76    1
     9     6    77    1
    10     7     9   am
    11     9    10    1
    12    10    11    2
    13    10    43    1
    14    11    14    1
    15    11    15    1
    16    12    13   ar
    17    12    27   ar
    18    12    43    1
    19    13    14    1
    20    13    30   ar
    21    14    17    2
    22    15    16    1
    23    16    17    1
    24    16    18    1
    25    16    22    1
    26    18    19    1
    27    19    20    1
    28    20    21    1
    29    21    22    1
    30    23    24    1
    31    23    88    1
    32    23    89    1
    33    24    25    1
    34    24    26    1
    35    24    90    1
    36    25    91    1
    37    25    92    1
    38    25    93    1
    39    26    94    1
    40    26    95    1
    41    26    96    1
    42    27    28   ar
    43    28    29   ar
    44    29    30   ar
    45    29    31    1
    46    30    33    1
    47    31    32    1
    48    32    33    1
    49    32    35    1
    50    34    97    1
    51    34    98    1
    52    34    99    1
    53    35    61    1
    54    36    37    1
    55    36    60    1
    56    37    38    1
    57    38    39    1
    58    39    40    1
    59    40    41    1
    60    41    42    1
    61    45   100    1
    62    47   101    1
    63    47   102    1
    64    47   103    1
    65    48   104    1
    66    49   105    1
    67    49   106    1
    68    49   107    1
    69    50   108    1
    70    51    59    1
    71    52   109    1
    72    52   110    1
    73    52   111    1
    74    53    54    1
    75    54    55    2
    76    54    56    1
    77    56   112    1
    78    56   113    1
    79    56   114    1
    80    57   115    1
    81    57   116    1
    82    57   117    1
    83    58   118    1
    84    58   119    1
    85    58   120    1
    86    59   121    1
    87    59   122    1
    88    59   123    1
    89    60    61    2
    90     1    47    1
    91     1    62    1
    92     2    63    1
    93     3    64    1
    94     4    65    1
    95     5     6    1
    96     7     8    2
    97     9    78    1
    98    15    79    1
    99    18    80    1
   100    18    81    1
   101    19    82    1
   102    19    83    1
   103    20    23    1
   104    21    84    1
   105    21    85    1
   106    22    86    1
   107    22    87    1
   108    27    45    1
   109    28    34    1
   110    32    58    1
   111    33    46    2
   112    36    51    1
   113    36    66    1
   114    37    52    1
   115    37    67    1
   116    38    53    1
   117    38    68    1
   118    42    48    1
   119    42    72    1
   120    43    44    2
   121    60    73    1
   122    61    74    1
   123    39    69    1
   124    39    57    1
   125    40    70    1
   126    40    50    1
   127    41    71    1
   128    41    49    1
