@<TRIPOS>MOLECULE
*****
 123 128 0 0 0
SMALL
GASTEIGER

@<TRIPOS>ATOM
     1 C         5.159073   1.842663   -0.017299 C.3        1 UNL1     0.0009
     2 C         6.715708   2.054749   0.96705 C.2        1 UNL1     -0.0787
     3 C         7.611485   2.893298   1.735468 C.2        1 UNL1     -0.0649
     4 C         8.99831   2.427538   2.587609 C.2        1 UNL1     -0.0542
     5 C         9.905818   2.78756   3.614201 C.2        1 UNL1     0.0115
     6 C         10.342094   3.94192   4.557832 C.3        1 UNL1     -0.0348
     7 C         10.841039   1.652492   4.257607 C.2        1 UNL1     0.2441
     8 O         12.022077   1.520076   3.967537 O.2        1 UNL1     -0.2702
     9 N         10.285086   0.989458   5.365512 N.am        1 UNL1     -0.2772
     10 C         9.537481   -0.08983   4.953751 C.2        1 UNL1     0.1049
     11 C         8.300404   0.170783   4.571727 C.2        1 UNL1     0.0801
     12 C         9.611105   -2.104916   3.473433 C.ar        1 UNL1     0.0753
     13 C         8.358725   -1.662167   2.940398 C.ar        1 UNL1     0.0305
     14 C         7.600334   -0.581019   3.565708 C.2        1 UNL1     0.0924
     15 N         7.570644   1.290672   4.712538 N.pl3        1 UNL1     -0.3170
     16 C         6.229604   0.998465   4.280706 C.3        1 UNL1     0.1275
     17 N         6.391172   -0.111798   3.271283 N.2        1 UNL1     -0.2557
     18 C         5.495019   0.386334   5.469563 C.3        1 UNL1     0.0016
     19 C         5.580923   1.349599   6.642734 C.3        1 UNL1     0.0026
     20 N         4.980184   2.617439   6.251936 N.3        1 UNL1     -0.3018
     21 C         5.580408   3.254077   5.077716 C.3        1 UNL1     0.0026
     22 C         5.479063   2.27087   3.91027 C.3        1 UNL1     0.0016
     23 C         4.740481   3.498583   7.377446 C.3        1 UNL1     0.0012
     24 C         3.749013   4.607597   6.991656 C.3        1 UNL1     -0.0339
     25 C         4.071111   5.926125   7.714008 C.3        1 UNL1     -0.0615
     26 C         3.729055   4.78681   5.483589 C.3        1 UNL1     -0.0615
     27 C         10.268856   -3.213349   2.945363 C.ar        1 UNL1     0.1347
     28 C         9.755204   -3.979692   1.914377 C.ar        1 UNL1     0.0342
     29 C         8.54508   -3.496163   1.373117 C.ar        1 UNL1     0.1435
     30 C         7.892881   -2.366175   1.868075 C.ar        1 UNL1     0.0774
     31 O         7.86306   -4.193026   0.438109 O.3        1 UNL1     -0.4436
     32 C         6.52929   -3.664946   0.493442 C.3        1 UNL1     0.3143
     33 C         6.676407   -2.278702   1.087495 C.2        1 UNL1     0.2504
     34 C         10.274869   -5.31746   1.46669 C.3        1 UNL1     -0.0327
     35 O         6.082169   -3.494716   -0.857246 O.2        1 UNL1     -0.4528
     36 C         2.316516   -3.964825   -0.773941 C.3        1 UNL1     0.0854
     37 C         1.233661   -3.186324   0.068011 C.3        1 UNL1     0.0236
     38 C         0.051365   -2.529603   -0.793755 C.3        1 UNL1     0.1131
     39 C         0.400063   -1.620941   -2.040757 C.3        1 UNL1     0.0200
     40 C         1.621085   -0.488449   -1.945853 C.3        1 UNL1     0.0661
     41 C         1.812794   0.66547   -0.717306 C.3        1 UNL1     0.0091
     42 C         3.333595   1.403756   -0.004916 C.3        1 UNL1     0.0661
     43 C         10.142804   -1.39855   4.665324 C.2        1 UNL1     0.2131
     44 O         10.950483   -1.888715   5.433523 O.2        1 UNL1     -0.2851
     45 O         11.505399   -3.55058   3.491874 O.3        1 UNL1     -0.5056
     46 O         5.962457   -1.31313   0.933225 O.2        1 UNL1     -0.2836
     47 C         5.321559   2.474409   -1.426013 C.3        1 UNL1     -0.0566
     48 O         2.829002   2.796264   -0.078554 O.3        1 UNL1     -0.3909
     49 C         0.916176   0.296103   0.443357 C.3        1 UNL1     -0.0577
     50 O         2.869929   -1.070316   -2.261357 O.3        1 UNL1     -0.3910
     51 O         2.212683   -3.84256   -2.174548 O.3        1 UNL1     -0.3753
     52 C         1.866052   -2.460634   1.300247 C.3        1 UNL1     -0.0564
     53 O         -1.129907   -2.108171   0.030451 O.3        1 UNL1     -0.4608
     54 C         -1.146899   -1.067367   0.921725 C.2        1 UNL1     0.3042
     55 O         -1.587235   -1.075001   2.070588 O.2        1 UNL1     -0.2512
     56 C         -0.491449   0.180357   0.401837 C.3        1 UNL1     0.0332
     57 C         0.342048   -2.546975   -3.34355 C.3        1 UNL1     -0.0567
     58 C         5.747832   -4.55387   1.488764 C.3        1 UNL1     0.0210
     59 C         1.75039   -5.013691   -2.845818 C.3        1 UNL1     0.0372
     60 C         3.728987   -3.657191   -0.419754 C.2        1 UNL1     -0.0208
     61 C         4.782355   -3.412674   -1.200376 C.2        1 UNL1     0.0882
     62 H         5.394113   0.776726   -0.123351 H        1 UNL1     0.0365
     63 H         7.159754   1.062648   0.862037 H        1 UNL1     0.0576
     64 H         7.362112   3.929732   1.973636 H        1 UNL1     0.0615
     65 H         9.202966   1.418133   2.220593 H        1 UNL1     0.0622
     66 H         2.163244   -5.021074   -0.511469 H        1 UNL1     0.0645
     67 H         0.69384   -3.981429   0.611115 H        1 UNL1     0.0362
     68 H         -0.398439   -3.441963   -1.214229 H        1 UNL1     0.0741
     69 H         -0.464354   -1.017777   -2.284447 H        1 UNL1     0.0359
     70 H         1.374353   0.132383   -2.828321 H        1 UNL1     0.0600
     71 H         1.255604   1.514043   -1.1605 H        1 UNL1     0.0348
     72 H         3.626599   0.987091   -0.979521 H        1 UNL1     0.0602
     73 H         3.860608   -3.776923   0.626949 H        1 UNL1     0.0628
     74 H         4.724096   -3.219808   -2.272126 H        1 UNL1     0.1022
     75 H         10.454719   4.894424   3.985917 H        1 UNL1     0.0279
     76 H         9.640026   4.220276   5.340576 H        1 UNL1     0.0279
     77 H         11.358853   3.805698   4.954498 H        1 UNL1     0.0279
     78 H         9.662221   1.620937   5.864863 H        1 UNL1     0.1553
     79 H         7.783203   2.014442   5.374284 H        1 UNL1     0.1484
     80 H         4.453535   0.193144   5.185385 H        1 UNL1     0.0317
     81 H         5.930083   -0.581097   5.742417 H        1 UNL1     0.0317
     82 H         6.618779   1.490288   6.97885 H        1 UNL1     0.0428
     83 H         5.052417   0.892738   7.479997 H        1 UNL1     0.0428
     84 H         5.060946   4.16272   4.757814 H        1 UNL1     0.0428
     85 H         6.607915   3.589623   5.275085 H        1 UNL1     0.0428
     86 H         5.8038   2.816095   3.043515 H        1 UNL1     0.0317
     87 H         4.425977   2.053668   3.693639 H        1 UNL1     0.0317
     88 H         4.3013   2.904028   8.189184 H        1 UNL1     0.0429
     89 H         5.678499   3.92142   7.759683 H        1 UNL1     0.0429
     90 H         2.73527   4.295749   7.269667 H        1 UNL1     0.0308
     91 H         5.139938   6.155068   7.666097 H        1 UNL1     0.0233
     92 H         3.507154   6.753642   7.277228 H        1 UNL1     0.0233
     93 H         3.799164   5.897681   8.776115 H        1 UNL1     0.0233
     94 H         3.353549   5.78319   5.226574 H        1 UNL1     0.0233
     95 H         4.742453   4.694778   5.082944 H        1 UNL1     0.0233
     96 H         3.089915   4.041713   5.001615 H        1 UNL1     0.0233
     97 H         9.517096   -6.09234   1.534308 H        1 UNL1     0.0280
     98 H         10.59966   -5.305424   0.418061 H        1 UNL1     0.0280
     99 H         11.128118   -5.612407   2.099199 H        1 UNL1     0.0280
     100 H         11.460654   -4.118888   4.240637 H        1 UNL1     0.2922
     101 H         5.459356   1.688112   -2.167906 H        1 UNL1     0.0236
     102 H         6.112021   3.222791   -1.471594 H        1 UNL1     0.0236
     103 H         4.411352   3.007057   -1.748507 H        1 UNL1     0.0236
     104 H         2.614065   3.080604   0.831349 H        1 UNL1     0.2098
     105 H         1.278606   -0.534111   1.044356 H        1 UNL1     0.0234
     106 H         0.633485   1.131221   1.08413 H        1 UNL1     0.0234
     107 H         -0.0   0.0   0.0 H        1 UNL1     0.0234
     108 H         3.56243   -0.444499   -1.974017 H        1 UNL1     0.2098
     109 H         2.347058   -3.163233   1.995013 H        1 UNL1     0.0234
     110 H         2.57843   -1.677398   1.019531 H        1 UNL1     0.0234
     111 H         1.107148   -1.93083   1.891278 H        1 UNL1     0.0234
     112 H         0.328189   0.474024   1.064633 H        1 UNL1     0.0342
     113 H         -0.142326   0.063038   -0.622952 H        1 UNL1     0.0342
     114 H         -1.236424   0.987898   0.409306 H        1 UNL1     0.0342
     115 H         -0.00359   -1.990105   -4.225377 H        1 UNL1     0.0234
     116 H         1.296207   -3.010839   -3.601346 H        1 UNL1     0.0234
     117 H         -0.418836   -3.344064   -3.283169 H        1 UNL1     0.0234
     118 H         4.987504   -5.173848   0.982273 H        1 UNL1     0.0309
     119 H         6.396519   -5.200912   2.087716 H        1 UNL1     0.0309
     120 H         5.160309   -3.967855   2.203964 H        1 UNL1     0.0309
     121 H         2.134021   -4.982494   -3.865234 H        1 UNL1     0.0524
     122 H         2.125238   -5.939379   -2.378241 H        1 UNL1     0.0524
     123 H         0.664373   -5.037878   -2.854593 H        1 UNL1     0.0524
@<TRIPOS>BOND
     1     1     2    1
     2     1    42    1
     3     2     3    2
     4     3     4    1
     5     4     5    2
     6     5     7    1
     7     6    75    1
     8     6    76    1
     9     6    77    1
    10     7     9   am
    11     9    10    1
    12    10    11    2
    13    10    43    1
    14    11    14    1
    15    11    15    1
    16    12    13   ar
    17    12    27   ar
    18    12    43    1
    19    13    14    1
    20    13    30   ar
    21    14    17    2
    22    15    16    1
    23    16    17    1
    24    16    18    1
    25    16    22    1
    26    18    19    1
    27    19    20    1
    28    20    21    1
    29    21    22    1
    30    23    24    1
    31    23    88    1
    32    23    89    1
    33    24    25    1
    34    24    26    1
    35    24    90    1
    36    25    91    1
    37    25    92    1
    38    25    93    1
    39    26    94    1
    40    26    95    1
    41    26    96    1
    42    27    28   ar
    43    28    29   ar
    44    29    30   ar
    45    29    31    1
    46    30    33    1
    47    31    32    1
    48    32    33    1
    49    32    35    1
    50    34    97    1
    51    34    98    1
    52    34    99    1
    53    35    61    1
    54    36    37    1
    55    36    60    1
    56    37    38    1
    57    38    39    1
    58    39    40    1
    59    40    41    1
    60    41    42    1
    61    45   100    1
    62    47   101    1
    63    47   102    1
    64    47   103    1
    65    48   104    1
    66    49   105    1
    67    49   106    1
    68    49   107    1
    69    50   108    1
    70    51    59    1
    71    52   109    1
    72    52   110    1
    73    52   111    1
    74    53    54    1
    75    54    55    2
    76    54    56    1
    77    56   112    1
    78    56   113    1
    79    56   114    1
    80    57   115    1
    81    57   116    1
    82    57   117    1
    83    58   118    1
    84    58   119    1
    85    58   120    1
    86    59   121    1
    87    59   122    1
    88    59   123    1
    89    60    61    2
    90     1    47    1
    91     1    62    1
    92     2    63    1
    93     3    64    1
    94     4    65    1
    95     5     6    1
    96     7     8    2
    97     9    78    1
    98    15    79    1
    99    18    80    1
   100    18    81    1
   101    19    82    1
   102    19    83    1
   103    20    23    1
   104    21    84    1
   105    21    85    1
   106    22    86    1
   107    22    87    1
   108    27    45    1
   109    28    34    1
   110    32    58    1
   111    33    46    2
   112    36    51    1
   113    36    66    1
   114    37    52    1
   115    37    67    1
   116    38    53    1
   117    38    68    1
   118    42    48    1
   119    42    72    1
   120    43    44    2
   121    60    73    1
   122    61    74    1
   123    39    69    1
   124    39    57    1
   125    40    70    1
   126    40    50    1
   127    41    71    1
   128    41    49    1
