@<TRIPOS>MOLECULE
*****
 123 128 0 0 0
SMALL
GASTEIGER

@<TRIPOS>ATOM
     1 C         4.939735   2.310032   0.524312 C.3        1 UNL1     0.0009
     2 C         6.303056   3.225236   -0.336381 C.2        1 UNL1     -0.0787
     3 C         7.611317   3.237761   -0.956335 C.2        1 UNL1     -0.0649
     4 C         8.366094   4.517707   -1.767759 C.2        1 UNL1     -0.0542
     5 C         9.378978   4.869042   -2.693884 C.2        1 UNL1     0.0115
     6 C         10.603537   4.328145   -3.482053 C.3        1 UNL1     -0.0348
     7 C         9.323094   6.311489   -3.396176 C.2        1 UNL1     0.2441
     8 O         10.031103   7.247506   -3.051038 O.2        1 UNL1     -0.2702
     9 N         8.597553   6.352975   -4.599513 N.am        1 UNL1     -0.2772
     10 C         7.267818   6.603809   -4.350092 C.2        1 UNL1     0.1049
     11 C         6.53083   5.559416   -4.017957 C.2        1 UNL1     0.0801
     12 C         5.739875   8.131462   -3.089536 C.ar        1 UNL1     0.0753
     13 C         5.101468   6.952193   -2.589168 C.ar        1 UNL1     0.0305
     14 C         5.393508   5.631194   -3.141189 C.2        1 UNL1     0.0924
     15 N         6.813293   4.246984   -4.08326 N.pl3        1 UNL1     -0.3170
     16 C         5.611206   3.522508   -3.766442 C.3        1 UNL1     0.1275
     17 N         4.832103   4.455855   -2.872246 N.2        1 UNL1     -0.2557
     18 C         4.804476   3.399341   -5.055519 C.3        1 UNL1     0.0016
     19 C         5.675052   2.739266   -6.112868 C.3        1 UNL1     0.0026
     20 N         6.089558   1.430363   -5.627084 N.3        1 UNL1     -0.3018
     21 C         6.820175   1.440956   -4.358047 C.3        1 UNL1     0.0026
     22 C         5.925445   2.104082   -3.309421 C.3        1 UNL1     0.0016
     23 C         6.667177   0.600432   -6.665454 C.3        1 UNL1     0.0012
     24 C         5.585695   0.15353   -7.661664 C.3        1 UNL1     -0.0339
     25 C         5.789504   0.801396   -9.04108 C.3        1 UNL1     -0.0615
     26 C         5.55761   -1.362172   -7.754607 C.3        1 UNL1     -0.0615
     27 C         5.369096   9.397652   -2.642989 C.ar        1 UNL1     0.1347
     28 C         4.350409   9.611988   -1.731733 C.ar        1 UNL1     0.0342
     29 C         3.769351   8.433895   -1.216338 C.ar        1 UNL1     0.1435
     30 C         4.155212   7.157433   -1.627404 C.ar        1 UNL1     0.0774
     31 O         2.691454   8.477165   -0.403151 O.3        1 UNL1     -0.4436
     32 C         2.12412   7.16085   -0.482652 C.3        1 UNL1     0.3143
     33 C         3.26519   6.263227   -0.916753 C.2        1 UNL1     0.2504
     34 C         3.731448   10.94064   -1.397562 C.3        1 UNL1     -0.0327
     35 O         1.768546   6.769108   0.849023 O.2        1 UNL1     -0.4528
     36 C         -1.210346   4.44424   0.489471 C.3        1 UNL1     0.0854
     37 C         -1.333348   3.101771   -0.329168 C.3        1 UNL1     0.0236
     38 C         -1.811478   1.831084   0.524349 C.3        1 UNL1     0.1131
     39 C         -1.077272   1.474011   1.879233 C.3        1 UNL1     0.0200
     40 C         0.586907   1.529642   1.978494 C.3        1 UNL1     0.0661
     41 C         1.671788   0.807311   0.892733 C.3        1 UNL1     0.0091
     42 C         3.34511   1.333391   0.355482 C.3        1 UNL1     0.0661
     43 C         6.748335   7.967081   -4.165756 C.2        1 UNL1     0.2131
     44 O         7.067042   8.858702   -4.931377 O.2        1 UNL1     -0.2851
     45 O         6.071535   10.490569   -3.146525 O.3        1 UNL1     -0.5056
     46 O         3.41651   5.080889   -0.704543 O.2        1 UNL1     -0.2836
     47 C         5.330148   2.023098   1.999178 C.3        1 UNL1     -0.0566
     48 O         3.951758   -0.006386   0.545455 O.3        1 UNL1     -0.3909
     49 C         0.916688   0.398851   -0.352449 C.3        1 UNL1     -0.0577
     50 O         1.026178   2.832672   2.305418 O.3        1 UNL1     -0.3910
     51 O         -1.362703   4.330156   1.886326 O.3        1 UNL1     -0.3753
     52 C         -0.235526   2.993383   -1.437315 C.3        1 UNL1     -0.0564
     53 O         -2.255289   0.672733   -0.320389 O.3        1 UNL1     -0.4608
     54 C         -2.332276   -0.630887   0.095035 C.2        1 UNL1     0.3042
     55 O         -1.426144   -1.462957   0.115607 O.2        1 UNL1     -0.2512
     56 C         -3.684467   -1.014184   0.625485 C.3        1 UNL1     0.0332
     57 C         -1.917367   2.131609   3.070861 C.3        1 UNL1     -0.0567
     58 C         1.068398   7.207021   -1.611744 C.3        1 UNL1     0.0210
     59 C         -2.585395   4.855694   2.400816 C.3        1 UNL1     0.0372
     60 C         0.043867   5.210689   0.255662 C.2        1 UNL1     -0.0208
     61 C         0.867174   5.805701   1.119878 C.2        1 UNL1     0.0882
     62 H         4.349462   3.234286   0.530982 H        1 UNL1     0.0365
     63 H         5.912104   4.244523   -0.310325 H        1 UNL1     0.0576
     64 H         8.186374   2.319985   -1.098124 H        1 UNL1     0.0615
     65 H         7.76319   5.389014   -1.497921 H        1 UNL1     0.0622
     66 H         -2.02498   5.0758   0.107963 H        1 UNL1     0.0645
     67 H         -2.205923   3.266629   -0.984907 H        1 UNL1     0.0362
     68 H         -2.815331   2.173936   0.81804 H        1 UNL1     0.0741
     69 H         -1.295671   0.445214   2.132782 H        1 UNL1     0.0359
     70 H         0.742315   0.944716   2.905193 H        1 UNL1     0.0600
     71 H         1.818318   -0.172184   1.388794 H        1 UNL1     0.0348
     72 H         3.147005   1.86696   1.296425 H        1 UNL1     0.0602
     73 H         0.176104   5.354129   -0.787979 H        1 UNL1     0.0628
     74 H         0.83487   5.663002   2.20054 H        1 UNL1     0.1022
     75 H         10.723188   3.230431   -3.315493 H        1 UNL1     0.0279
     76 H         10.551166   4.396226   -4.566346 H        1 UNL1     0.0279
     77 H         11.559977   4.711335   -3.097228 H        1 UNL1     0.0279
     78 H         8.656755   5.450176   -5.06591 H        1 UNL1     0.1553
     79 H         7.546217   3.862561   -4.650689 H        1 UNL1     0.1484
     80 H         3.900463   2.811121   -4.856713 H        1 UNL1     0.0317
     81 H         4.468728   4.382481   -5.402448 H        1 UNL1     0.0317
     82 H         6.545957   3.360423   -6.368998 H        1 UNL1     0.0428
     83 H         5.081036   2.6629   -7.02411 H        1 UNL1     0.0428
     84 H         7.049748   0.441485   -3.975729 H        1 UNL1     0.0428
     85 H         7.803477   1.921316   -4.456472 H        1 UNL1     0.0428
     86 H         6.433697   1.975141   -2.371848 H        1 UNL1     0.0317
     87 H         5.004401   1.522484   -3.1809 H        1 UNL1     0.0317
     88 H         7.413564   1.198219   -7.204759 H        1 UNL1     0.0429
     89 H         7.193817   -0.263011   -6.238969 H        1 UNL1     0.0429
     90 H         4.601272   0.448463   -7.279382 H        1 UNL1     0.0308
     91 H         6.834737   0.740304   -9.358662 H        1 UNL1     0.0233
     92 H         5.158011   0.319629   -9.79123 H        1 UNL1     0.0233
     93 H         5.51647   1.863582   -9.048048 H        1 UNL1     0.0233
     94 H         5.09888   -1.67423   -8.699076 H        1 UNL1     0.0233
     95 H         6.577082   -1.757076   -7.728311 H        1 UNL1     0.0233
     96 H         4.987375   -1.801938   -6.931561 H        1 UNL1     0.0233
     97 H         2.663211   10.953021   -1.592361 H        1 UNL1     0.0280
     98 H         3.8463   11.195365   -0.335874 H        1 UNL1     0.0280
     99 H         4.202672   11.730538   -2.005101 H        1 UNL1     0.0280
     100 H         7.007968   10.404421   -3.11057 H        1 UNL1     0.2922
     101 H         4.433447   1.818429   2.583723 H        1 UNL1     0.0236
     102 H         5.936676   2.811719   2.443233 H        1 UNL1     0.0236
     103 H         5.941509   1.110344   2.095675 H        1 UNL1     0.0236
     104 H         4.27277   -0.056823   1.467072 H        1 UNL1     0.2098
     105 H         0.685092   1.219542   -1.02672 H        1 UNL1     0.0234
     106 H         1.361977   -0.429052   -0.90401 H        1 UNL1     0.0234
     107 H         0.0   -0.0   0.0 H        1 UNL1     0.0234
     108 H         0.912894   3.385512   1.50836 H        1 UNL1     0.2098
     109 H         -0.304495   3.807543   -2.172228 H        1 UNL1     0.0234
     110 H         0.781469   2.950034   -1.032858 H        1 UNL1     0.0234
     111 H         -0.332643   2.063691   -2.013672 H        1 UNL1     0.0234
     112 H         -3.973998   -1.993893   0.233455 H        1 UNL1     0.0342
     113 H         -3.715265   -1.004259   1.713969 H        1 UNL1     0.0342
     114 H         -4.415794   -0.27769   0.265063 H        1 UNL1     0.0342
     115 H         -1.943391   1.484006   3.958059 H        1 UNL1     0.0234
     116 H         -1.547601   3.108642   3.38824 H        1 UNL1     0.0234
     117 H         -2.993633   2.230819   2.847809 H        1 UNL1     0.0234
     118 H         0.039102   7.126621   -1.220474 H        1 UNL1     0.0309
     119 H         1.145433   8.103188   -2.235565 H        1 UNL1     0.0309
     120 H         1.146165   6.354298   -2.295062 H        1 UNL1     0.0309
     121 H         -2.412171   5.13738   3.439085 H        1 UNL1     0.0524
     122 H         -2.911712   5.760449   1.861397 H        1 UNL1     0.0524
     123 H         -3.370618   4.107365   2.341462 H        1 UNL1     0.0524
@<TRIPOS>BOND
     1     1     2    1
     2     1    42    1
     3     2     3    2
     4     3     4    1
     5     4     5    2
     6     5     7    1
     7     6    75    1
     8     6    76    1
     9     6    77    1
    10     7     9   am
    11     9    10    1
    12    10    11    2
    13    10    43    1
    14    11    14    1
    15    11    15    1
    16    12    13   ar
    17    12    27   ar
    18    12    43    1
    19    13    14    1
    20    13    30   ar
    21    14    17    2
    22    15    16    1
    23    16    17    1
    24    16    18    1
    25    16    22    1
    26    18    19    1
    27    19    20    1
    28    20    21    1
    29    21    22    1
    30    23    24    1
    31    23    88    1
    32    23    89    1
    33    24    25    1
    34    24    26    1
    35    24    90    1
    36    25    91    1
    37    25    92    1
    38    25    93    1
    39    26    94    1
    40    26    95    1
    41    26    96    1
    42    27    28   ar
    43    28    29   ar
    44    29    30   ar
    45    29    31    1
    46    30    33    1
    47    31    32    1
    48    32    33    1
    49    32    35    1
    50    34    97    1
    51    34    98    1
    52    34    99    1
    53    35    61    1
    54    36    37    1
    55    36    60    1
    56    37    38    1
    57    38    39    1
    58    39    40    1
    59    40    41    1
    60    41    42    1
    61    45   100    1
    62    47   101    1
    63    47   102    1
    64    47   103    1
    65    48   104    1
    66    49   105    1
    67    49   106    1
    68    49   107    1
    69    50   108    1
    70    51    59    1
    71    52   109    1
    72    52   110    1
    73    52   111    1
    74    53    54    1
    75    54    55    2
    76    54    56    1
    77    56   112    1
    78    56   113    1
    79    56   114    1
    80    57   115    1
    81    57   116    1
    82    57   117    1
    83    58   118    1
    84    58   119    1
    85    58   120    1
    86    59   121    1
    87    59   122    1
    88    59   123    1
    89    60    61    2
    90     1    47    1
    91     1    62    1
    92     2    63    1
    93     3    64    1
    94     4    65    1
    95     5     6    1
    96     7     8    2
    97     9    78    1
    98    15    79    1
    99    18    80    1
   100    18    81    1
   101    19    82    1
   102    19    83    1
   103    20    23    1
   104    21    84    1
   105    21    85    1
   106    22    86    1
   107    22    87    1
   108    27    45    1
   109    28    34    1
   110    32    58    1
   111    33    46    2
   112    36    51    1
   113    36    66    1
   114    37    52    1
   115    37    67    1
   116    38    53    1
   117    38    68    1
   118    42    48    1
   119    42    72    1
   120    43    44    2
   121    60    73    1
   122    61    74    1
   123    39    69    1
   124    39    57    1
   125    40    70    1
   126    40    50    1
   127    41    71    1
   128    41    49    1
