@<TRIPOS>MOLECULE
*****
 123 128 0 0 0
SMALL
GASTEIGER

@<TRIPOS>ATOM
     1 C         2.669741   -2.554802   3.987382 C.3        1 UNL1     0.0009
     2 C         2.534326   -3.884042   5.272614 C.2        1 UNL1     -0.0787
     3 C         2.424355   -4.283358   6.659877 C.2        1 UNL1     -0.0649
     4 C         2.193165   -5.842141   7.278831 C.2        1 UNL1     -0.0542
     5 C         1.765645   -6.594303   8.400686 C.2        1 UNL1     0.0115
     6 C         1.36434   -6.499152   9.898425 C.3        1 UNL1     -0.0348
     7 C         1.383675   -8.140466   8.199521 C.2        1 UNL1     0.2441
     8 O         2.129418   -9.056845   8.516765 O.2        1 UNL1     -0.2702
     9 N         0.035706   -8.377186   7.878438 N.am        1 UNL1     -0.2772
     10 C         -0.150137   -8.322812   6.516151 C.2        1 UNL1     0.1049
     11 C         -0.306206   -7.118235   5.997633 C.2        1 UNL1     0.0801
     12 C         0.770981   -9.176757   4.3529 C.ar        1 UNL1     0.0753
     13 C         0.777194   -7.816138   3.908731 C.ar        1 UNL1     0.0305
     14 C         0.115226   -6.759518   4.670572 C.2        1 UNL1     0.0924
     15 N         -0.523627   -5.938435   6.603708 N.pl3        1 UNL1     -0.3170
     16 C         -0.793432   -4.962451   5.581497 C.3        1 UNL1     0.1275
     17 N         -0.063125   -5.47737   4.365259 N.2        1 UNL1     -0.2557
     18 C         -2.280418   -5.052006   5.252019 C.3        1 UNL1     0.0016
     19 C         -3.075118   -4.855368   6.53318 C.3        1 UNL1     0.0026
     20 N         -2.740604   -3.554516   7.096131 N.3        1 UNL1     -0.3018
     21 C         -1.320475   -3.350564   7.389399 C.3        1 UNL1     0.0026
     22 C         -0.541595   -3.548318   6.087809 C.3        1 UNL1     0.0016
     23 C         -3.653137   -3.141899   8.143831 C.3        1 UNL1     0.0012
     24 C         -4.92944   -3.997428   8.114228 C.3        1 UNL1     -0.0339
     25 C         -5.810502   -3.735864   9.346856 C.3        1 UNL1     -0.0615
     26 C         -5.68957   -3.754215   6.822009 C.3        1 UNL1     -0.0615
     27 C         1.298121   -10.196103   3.563485 C.ar        1 UNL1     0.1347
     28 C         1.820323   -9.983605   2.300077 C.ar        1 UNL1     0.0342
     29 C         1.860529   -8.629841   1.904008 C.ar        1 UNL1     0.1435
     30 C         1.36917   -7.593857   2.699322 C.ar        1 UNL1     0.0774
     31 O         2.238821   -8.271112   0.657727 O.3        1 UNL1     -0.4436
     32 C         1.711458   -6.947044   0.485665 C.3        1 UNL1     0.3143
     33 C         1.536078   -6.404924   1.889788 C.2        1 UNL1     0.2504
     34 C         2.170127   -11.049992   1.2998 C.3        1 UNL1     -0.0327
     35 O         2.731981   -6.160157   -0.140908 O.2        1 UNL1     -0.4528
     36 C         0.910684   -3.544144   -2.201841 C.3        1 UNL1     0.0854
     37 C         -0.144551   -2.467681   -1.737914 C.3        1 UNL1     0.0236
     38 C         0.22345   -0.953465   -2.116686 C.3        1 UNL1     0.1131
     39 C         1.651818   -0.378423   -1.754248 C.3        1 UNL1     0.0200
     40 C         2.333663   -0.687473   -0.263606 C.3        1 UNL1     0.0661
     41 C         1.57546   -0.475745   1.239028 C.3        1 UNL1     0.0091
     42 C         1.76871   -1.402285   2.810518 C.3        1 UNL1     0.0661
     43 C         0.103723   -9.478867   5.643542 C.2        1 UNL1     0.2131
     44 O         -0.313197   -10.582937   5.943448 O.2        1 UNL1     -0.2851
     45 O         1.294476   -11.486517   4.089087 O.3        1 UNL1     -0.5056
     46 O         1.552746   -5.252332   2.260069 O.2        1 UNL1     -0.2836
     47 C         4.101971   -1.955934   3.979784 C.3        1 UNL1     -0.0566
     48 O         1.892973   -0.183598   3.646268 O.3        1 UNL1     -0.3909
     49 C         0.091063   -0.291701   1.015006 C.3        1 UNL1     -0.0577
     50 O         3.040635   -1.911258   -0.279902 O.3        1 UNL1     -0.3910
     51 O         2.115945   -3.037846   -2.729514 O.3        1 UNL1     -0.3753
     52 C         -0.799015   -2.846603   -0.369322 C.3        1 UNL1     -0.0564
     53 O         -0.931607   -0.00414   -1.986482 O.3        1 UNL1     -0.4608
     54 C         -2.21516   -0.35395   -1.657763 C.2        1 UNL1     0.3042
     55 O         -2.719292   -1.475274   -1.705959 O.2        1 UNL1     -0.2512
     56 C         -3.035135   0.790741   -1.134278 C.3        1 UNL1     0.0332
     57 C         2.579763   -0.542113   -3.046648 C.3        1 UNL1     -0.0567
     58 C         0.317396   -7.112333   -0.163025 C.3        1 UNL1     0.0210
     59 C         2.070425   -2.706038   -4.116488 C.3        1 UNL1     0.0372
     60 C         1.282944   -4.546688   -1.166713 C.2        1 UNL1     -0.0208
     61 C         2.478238   -5.020818   -0.812853 C.2        1 UNL1     0.0882
     62 H         2.650416   -3.329645   3.211523 H        1 UNL1     0.0365
     63 H         2.620777   -4.777745   4.651091 H        1 UNL1     0.0576
     64 H         2.315766   -3.548077   7.460301 H        1 UNL1     0.0615
     65 H         2.400379   -6.494485   6.426193 H        1 UNL1     0.0622
     66 H         0.4002   -4.1066   -2.996255 H        1 UNL1     0.0645
     67 H         -1.017672   -2.650571   -2.388123 H        1 UNL1     0.0362
     68 H         0.209716   -1.029961   -3.21463 H        1 UNL1     0.0741
     69 H         1.607481   0.702318   -1.775237 H        1 UNL1     0.0359
     70 H         3.123314   0.08799   -0.250652 H        1 UNL1     0.0600
     71 H         1.890255   0.560839   1.470013 H        1 UNL1     0.0348
     72 H         2.666383   -1.624156   2.21531 H        1 UNL1     0.0602
     73 H         0.400217   -4.983311   -0.769973 H        1 UNL1     0.0628
     74 H         3.429878   -4.592012   -1.128675 H        1 UNL1     0.1022
     75 H         0.282014   -6.740392   10.03036 H        1 UNL1     0.0279
     76 H         1.845181   -7.201981   10.575103 H        1 UNL1     0.0279
     77 H         1.405887   -5.470412   10.285296 H        1 UNL1     0.0279
     78 H         -0.547341   -7.654968   8.296213 H        1 UNL1     0.1553
     79 H         -0.863383   -5.849406   7.543693 H        1 UNL1     0.1484
     80 H         -2.527954   -4.287378   4.505804 H        1 UNL1     0.0317
     81 H         -2.523725   -6.020169   4.801339 H        1 UNL1     0.0317
     82 H         -2.885251   -5.660893   7.257744 H        1 UNL1     0.0428
     83 H         -4.132449   -4.924791   6.275729 H        1 UNL1     0.0428
     84 H         -1.084913   -2.33944   7.735738 H        1 UNL1     0.0428
     85 H         -0.974317   -3.999583   8.20565 H        1 UNL1     0.0428
     86 H         0.469939   -3.262522   6.309412 H        1 UNL1     0.0317
     87 H         -0.85821   -2.805806   5.34516 H        1 UNL1     0.0317
     88 H         -3.154077   -3.29205   9.110106 H        1 UNL1     0.0429
     89 H         -3.890999   -2.073092   8.067359 H        1 UNL1     0.0429
     90 H         -4.650857   -5.05784   8.102814 H        1 UNL1     0.0308
     91 H         -5.260266   -3.91782   10.274883 H        1 UNL1     0.0233
     92 H         -6.181489   -2.708257   9.345474 H        1 UNL1     0.0233
     93 H         -6.69709   -4.381012   9.370972 H        1 UNL1     0.0233
     94 H         -5.34146   -2.830543   6.347156 H        1 UNL1     0.0233
     95 H         -5.514575   -4.578375   6.124801 H        1 UNL1     0.0233
     96 H         -6.764681   -3.666328   7.001953 H        1 UNL1     0.0233
     97 H         2.90086   -11.751607   1.690947 H        1 UNL1     0.0280
     98 H         1.29764   -11.652371   1.01491 H        1 UNL1     0.0280
     99 H         2.59002   -10.582838   0.393956 H        1 UNL1     0.0280
     100 H         0.530936   -11.700733   4.595782 H        1 UNL1     0.2922
     101 H         4.587374   -2.175791   3.029152 H        1 UNL1     0.0236
     102 H         4.70431   -2.274524   4.829885 H        1 UNL1     0.0236
     103 H         4.090765   -0.854837   4.040234 H        1 UNL1     0.0236
     104 H         2.498443   0.429602   3.185439 H        1 UNL1     0.2098
     105 H         -0.499649   -1.193306   1.156356 H        1 UNL1     0.0234
     106 H         -0.352358   0.540101   1.56219 H        1 UNL1     0.0234
     107 H         0.0   0.0   0.0 H        1 UNL1     0.0234
     108 H         2.394078   -2.617246   -0.47307 H        1 UNL1     0.2098
     109 H         -1.214899   -1.971534   0.149338 H        1 UNL1     0.0234
     110 H         -1.569994   -3.619308   -0.460212 H        1 UNL1     0.0234
     111 H         -0.066139   -3.281932   0.323013 H        1 UNL1     0.0234
     112 H         -3.385385   1.408843   -1.966517 H        1 UNL1     0.0342
     113 H         -3.869091   0.450833   -0.52205 H        1 UNL1     0.0342
     114 H         -2.389206   1.413875   -0.500523 H        1 UNL1     0.0342
     115 H         3.404778   0.1835   -3.051614 H        1 UNL1     0.0234
     116 H         3.016559   -1.536697   -3.156465 H        1 UNL1     0.0234
     117 H         2.067611   -0.288929   -3.990863 H        1 UNL1     0.0234
     118 H         -0.25358   -6.167353   -0.165146 H        1 UNL1     0.0309
     119 H         0.362298   -7.505943   -1.183445 H        1 UNL1     0.0309
     120 H         -0.328725   -7.796558   0.397753 H        1 UNL1     0.0309
     121 H         2.937015   -2.082619   -4.334955 H        1 UNL1     0.0524
     122 H         2.131758   -3.597825   -4.762236 H        1 UNL1     0.0524
     123 H         1.154616   -2.168026   -4.344372 H        1 UNL1     0.0524
@<TRIPOS>BOND
     1     1     2    1
     2     1    42    1
     3     2     3    2
     4     3     4    1
     5     4     5    2
     6     5     7    1
     7     6    75    1
     8     6    76    1
     9     6    77    1
    10     7     9   am
    11     9    10    1
    12    10    11    2
    13    10    43    1
    14    11    14    1
    15    11    15    1
    16    12    13   ar
    17    12    27   ar
    18    12    43    1
    19    13    14    1
    20    13    30   ar
    21    14    17    2
    22    15    16    1
    23    16    17    1
    24    16    18    1
    25    16    22    1
    26    18    19    1
    27    19    20    1
    28    20    21    1
    29    21    22    1
    30    23    24    1
    31    23    88    1
    32    23    89    1
    33    24    25    1
    34    24    26    1
    35    24    90    1
    36    25    91    1
    37    25    92    1
    38    25    93    1
    39    26    94    1
    40    26    95    1
    41    26    96    1
    42    27    28   ar
    43    28    29   ar
    44    29    30   ar
    45    29    31    1
    46    30    33    1
    47    31    32    1
    48    32    33    1
    49    32    35    1
    50    34    97    1
    51    34    98    1
    52    34    99    1
    53    35    61    1
    54    36    37    1
    55    36    60    1
    56    37    38    1
    57    38    39    1
    58    39    40    1
    59    40    41    1
    60    41    42    1
    61    45   100    1
    62    47   101    1
    63    47   102    1
    64    47   103    1
    65    48   104    1
    66    49   105    1
    67    49   106    1
    68    49   107    1
    69    50   108    1
    70    51    59    1
    71    52   109    1
    72    52   110    1
    73    52   111    1
    74    53    54    1
    75    54    55    2
    76    54    56    1
    77    56   112    1
    78    56   113    1
    79    56   114    1
    80    57   115    1
    81    57   116    1
    82    57   117    1
    83    58   118    1
    84    58   119    1
    85    58   120    1
    86    59   121    1
    87    59   122    1
    88    59   123    1
    89    60    61    2
    90     1    47    1
    91     1    62    1
    92     2    63    1
    93     3    64    1
    94     4    65    1
    95     5     6    1
    96     7     8    2
    97     9    78    1
    98    15    79    1
    99    18    80    1
   100    18    81    1
   101    19    82    1
   102    19    83    1
   103    20    23    1
   104    21    84    1
   105    21    85    1
   106    22    86    1
   107    22    87    1
   108    27    45    1
   109    28    34    1
   110    32    58    1
   111    33    46    2
   112    36    51    1
   113    36    66    1
   114    37    52    1
   115    37    67    1
   116    38    53    1
   117    38    68    1
   118    42    48    1
   119    42    72    1
   120    43    44    2
   121    60    73    1
   122    61    74    1
   123    39    69    1
   124    39    57    1
   125    40    70    1
   126    40    50    1
   127    41    71    1
   128    41    49    1
