@<TRIPOS>MOLECULE
*****
 123 128 0 0 0
SMALL
GASTEIGER

@<TRIPOS>ATOM
     1 C         -1.757061   3.664876   2.221999 C.3        1 UNL1     0.0009
     2 C         -3.509936   4.186385   2.526128 C.2        1 UNL1     -0.0787
     3 C         -4.598878   5.116179   2.312269 C.2        1 UNL1     -0.0649
     4 C         -6.20374   4.976706   2.833155 C.2        1 UNL1     -0.0542
     5 C         -7.533794   5.419079   2.627387 C.2        1 UNL1     0.0115
     6 C         -8.40967   6.462944   1.881391 C.3        1 UNL1     -0.0348
     7 C         -8.7431   4.549565   3.226145 C.2        1 UNL1     0.2441
     8 O         -9.344039   4.858974   4.245784 O.2        1 UNL1     -0.2702
     9 N         -9.236795   3.555084   2.363924 N.am        1 UNL1     -0.2772
     10 C         -8.530981   2.385132   2.526286 C.2        1 UNL1     0.1049
     11 C         -7.389753   2.297643   1.867374 C.2        1 UNL1     0.0801
     12 C         -7.689642   0.801901   4.270666 C.ar        1 UNL1     0.0753
     13 C         -6.410821   0.905924   3.636314 C.ar        1 UNL1     0.0305
     14 C         -6.25194   1.554216   2.336497 C.2        1 UNL1     0.0924
     15 N         -6.893183   3.078254   0.892391 N.pl3        1 UNL1     -0.3170
     16 C         -5.696958   2.45239   0.394804 C.3        1 UNL1     0.1275
     17 N         -5.173993   1.653873   1.563822 N.2        1 UNL1     -0.2557
     18 C         -6.12392   1.433144   -0.657119 C.3        1 UNL1     0.0016
     19 C         -6.947774   2.14529   -1.71811 C.3        1 UNL1     0.0026
     20 N         -6.136932   3.20053   -2.309745 N.3        1 UNL1     -0.3018
     21 C         -5.627323   4.196652   -1.365071 C.3        1 UNL1     0.0026
     22 C         -4.799052   3.459969   -0.310955 C.3        1 UNL1     0.0016
     23 C         -6.713108   3.74005   -3.525304 C.3        1 UNL1     0.0012
     24 C         -8.084224   3.102797   -3.800448 C.3        1 UNL1     -0.0339
     25 C         -9.006277   3.200945   -2.573973 C.3        1 UNL1     -0.0615
     26 C         -8.716437   3.736853   -5.027258 C.3        1 UNL1     -0.0615
     27 C         -7.853834   0.078357   5.449498 C.ar        1 UNL1     0.1347
     28 C         -6.825467   -0.614062   6.063556 C.ar        1 UNL1     0.0342
     29 C         -5.565454   -0.457048   5.448027 C.ar        1 UNL1     0.1435
     30 C         -5.378848   0.294272   4.287029 C.ar        1 UNL1     0.0774
     31 O         -4.48653   -1.156359   5.862628 O.3        1 UNL1     -0.4436
     32 C         -3.573809   -1.104991   4.755752 C.3        1 UNL1     0.3143
     33 C         -3.977034   0.124124   3.966512 C.2        1 UNL1     0.2504
     34 C         -6.976227   -1.609693   7.179841 C.3        1 UNL1     -0.0327
     35 O         -2.269567   -0.847971   5.290677 O.2        1 UNL1     -0.4528
     36 C         0.176861   -2.512633   2.913288 C.3        1 UNL1     0.0854
     37 C         0.369173   -2.289086   1.363912 C.3        1 UNL1     0.0236
     38 C         1.860373   -1.904515   0.916506 C.3        1 UNL1     0.1131
     39 C         2.618964   -0.723466   1.645842 C.3        1 UNL1     0.0200
     40 C         1.828551   0.705356   1.986652 C.3        1 UNL1     0.0661
     41 C         0.910472   1.618836   0.891073 C.3        1 UNL1     0.0091
     42 C         -0.57044   2.666794   1.163263 C.3        1 UNL1     0.0661
     43 C         -8.853239   1.415461   3.583755 C.2        1 UNL1     0.2131
     44 O         -10.006777   1.081878   3.78577 O.2        1 UNL1     -0.2851
     45 O         -9.121876   0.064891   6.026843 O.3        1 UNL1     -0.5056
     46 O         -3.290355   0.81943   3.251756 O.2        1 UNL1     -0.2836
     47 C         -0.780271   4.557629   3.033697 C.3        1 UNL1     -0.0566
     48 O         -0.04444   3.811867   0.38144 O.3        1 UNL1     -0.3909
     49 C         0.636592   0.778125   -0.335993 C.3        1 UNL1     -0.0577
     50 O         1.158135   0.623409   3.228244 O.3        1 UNL1     -0.3910
     51 O         1.280451   -2.180668   3.725272 O.3        1 UNL1     -0.3753
     52 C         -0.890267   -1.632389   0.71007 C.3        1 UNL1     -0.0564
     53 O         2.098867   -2.04137   -0.558865 O.3        1 UNL1     -0.4608
     54 C         1.350659   -2.802976   -1.417976 C.2        1 UNL1     0.3042
     55 O         0.611816   -3.744178   -1.131465 O.2        1 UNL1     -0.2512
     56 C         1.439568   -2.357274   -2.849813 C.3        1 UNL1     0.0332
     57 C         3.521975   -1.368725   2.797532 C.3        1 UNL1     -0.0567
     58 C         -3.853748   -2.361824   3.899285 C.3        1 UNL1     0.0210
     59 C         1.076925   -1.059693   4.584258 C.3        1 UNL1     0.0372
     60 C         -1.009668   -1.835468   3.503845 C.2        1 UNL1     -0.0208
     61 C         -1.130933   -1.128638   4.628313 C.2        1 UNL1     0.0882
     62 H         -1.938764   2.768842   2.827655 H        1 UNL1     0.0365
     63 H         -3.827083   3.426104   3.242968 H        1 UNL1     0.0576
     64 H         -4.506612   5.956427   1.620475 H        1 UNL1     0.0615
     65 H         -6.169181   4.170342   3.570763 H        1 UNL1     0.0622
     66 H         -0.009705   -3.59096   3.01552 H        1 UNL1     0.0645
     67 H         0.264221   -3.299609   0.932185 H        1 UNL1     0.0362
     68 H         2.386417   -2.821835   1.221996 H        1 UNL1     0.0741
     69 H         3.438878   -0.397404   1.019876 H        1 UNL1     0.0359
     70 H         2.697649   1.361586   2.184369 H        1 UNL1     0.0600
     71 H         1.690767   2.307809   0.512376 H        1 UNL1     0.0348
     72 H         -0.096964   2.549049   2.148794 H        1 UNL1     0.0602
     73 H         -1.873663   -2.092516   2.942874 H        1 UNL1     0.0628
     74 H         -0.291521   -0.775484   5.228236 H        1 UNL1     0.1022
     75 H         -8.109647   6.530913   0.807892 H        1 UNL1     0.0279
     76 H         -9.473074   6.244527   1.814048 H        1 UNL1     0.0279
     77 H         -8.22781   7.492498   2.222926 H        1 UNL1     0.0279
     78 H         -9.119957   3.851695   1.397256 H        1 UNL1     0.1553
     79 H         -7.452173   3.700506   0.338076 H        1 UNL1     0.1484
     80 H         -5.229091   0.969247   -1.089377 H        1 UNL1     0.0317
     81 H         -6.708338   0.624981   -0.204373 H        1 UNL1     0.0317
     82 H         -7.882954   2.549883   -1.303797 H        1 UNL1     0.0428
     83 H         -7.243312   1.399935   -2.457131 H        1 UNL1     0.0428
     84 H         -4.956907   4.93145   -1.821609 H        1 UNL1     0.0428
     85 H         -6.436021   4.803973   -0.935553 H        1 UNL1     0.0428
     86 H         -4.335669   4.227137   0.281259 H        1 UNL1     0.0317
     87 H         -3.947888   2.957874   -0.786894 H        1 UNL1     0.0317
     88 H         -6.851163   4.820449   -3.387558 H        1 UNL1     0.0429
     89 H         -6.036728   3.608603   -4.379708 H        1 UNL1     0.0429
     90 H         -7.944875   2.043946   -4.048698 H        1 UNL1     0.0308
     91 H         -9.482396   2.240172   -2.356425 H        1 UNL1     0.0233
     92 H         -8.446823   3.531023   -1.695526 H        1 UNL1     0.0233
     93 H         -9.812603   3.930862   -2.715024 H        1 UNL1     0.0233
     94 H         -9.771919   3.452582   -5.097854 H        1 UNL1     0.0233
     95 H         -8.66508   4.826721   -4.953011 H        1 UNL1     0.0233
     96 H         -8.211482   3.42135   -5.944562 H        1 UNL1     0.0233
     97 H         -6.608264   -2.592727   6.901493 H        1 UNL1     0.0280
     98 H         -6.409014   -1.318447   8.073542 H        1 UNL1     0.0280
     99 H         -8.040872   -1.702943   7.449897 H        1 UNL1     0.0280
     100 H         -9.584515   0.882735   5.974703 H        1 UNL1     0.2922
     101 H         -0.442422   4.021304   3.92019 H        1 UNL1     0.0236
     102 H         -1.196162   5.533998   3.280116 H        1 UNL1     0.0236
     103 H         0.142527   4.77893   2.471859 H        1 UNL1     0.0236
     104 H         -0.81045   4.295628   0.015144 H        1 UNL1     0.2098
     105 H         0.123599   1.30546   -1.136347 H        1 UNL1     0.0234
     106 H         1.504729   0.248575   -0.728219 H        1 UNL1     0.0234
     107 H         0.0   -0.0   0.0 H        1 UNL1     0.0234
     108 H         0.407796   0.009057   3.112782 H        1 UNL1     0.2098
     109 H         -1.666428   -2.371705   0.467795 H        1 UNL1     0.0234
     110 H         -1.323866   -0.832271   1.319615 H        1 UNL1     0.0234
     111 H         -0.64271   -1.139309   -0.239422 H        1 UNL1     0.0234
     112 H         2.28044   -1.668089   -2.973526 H        1 UNL1     0.0342
     113 H         1.519751   -3.198688   -3.536426 H        1 UNL1     0.0342
     114 H         0.518222   -1.812284   -3.097345 H        1 UNL1     0.0342
     115 H         3.219845   -2.40065   3.023442 H        1 UNL1     0.0234
     116 H         4.589672   -1.381593   2.5697 H        1 UNL1     0.0234
     117 H         3.389564   -0.887578   3.781862 H        1 UNL1     0.0234
     118 H         -3.680645   -3.294967   4.463452 H        1 UNL1     0.0309
     119 H         -4.864569   -2.379316   3.479599 H        1 UNL1     0.0309
     120 H         -3.170298   -2.451018   3.047788 H        1 UNL1     0.0309
     121 H         2.036442   -0.557248   4.703555 H        1 UNL1     0.0524
     122 H         0.370139   -0.328598   4.157655 H        1 UNL1     0.0524
     123 H         0.703628   -1.388969   5.549826 H        1 UNL1     0.0524
@<TRIPOS>BOND
     1     1     2    1
     2     1    42    1
     3     2     3    2
     4     3     4    1
     5     4     5    2
     6     5     7    1
     7     6    75    1
     8     6    76    1
     9     6    77    1
    10     7     9   am
    11     9    10    1
    12    10    11    2
    13    10    43    1
    14    11    14    1
    15    11    15    1
    16    12    13   ar
    17    12    27   ar
    18    12    43    1
    19    13    14    1
    20    13    30   ar
    21    14    17    2
    22    15    16    1
    23    16    17    1
    24    16    18    1
    25    16    22    1
    26    18    19    1
    27    19    20    1
    28    20    21    1
    29    21    22    1
    30    23    24    1
    31    23    88    1
    32    23    89    1
    33    24    25    1
    34    24    26    1
    35    24    90    1
    36    25    91    1
    37    25    92    1
    38    25    93    1
    39    26    94    1
    40    26    95    1
    41    26    96    1
    42    27    28   ar
    43    28    29   ar
    44    29    30   ar
    45    29    31    1
    46    30    33    1
    47    31    32    1
    48    32    33    1
    49    32    35    1
    50    34    97    1
    51    34    98    1
    52    34    99    1
    53    35    61    1
    54    36    37    1
    55    36    60    1
    56    37    38    1
    57    38    39    1
    58    39    40    1
    59    40    41    1
    60    41    42    1
    61    45   100    1
    62    47   101    1
    63    47   102    1
    64    47   103    1
    65    48   104    1
    66    49   105    1
    67    49   106    1
    68    49   107    1
    69    50   108    1
    70    51    59    1
    71    52   109    1
    72    52   110    1
    73    52   111    1
    74    53    54    1
    75    54    55    2
    76    54    56    1
    77    56   112    1
    78    56   113    1
    79    56   114    1
    80    57   115    1
    81    57   116    1
    82    57   117    1
    83    58   118    1
    84    58   119    1
    85    58   120    1
    86    59   121    1
    87    59   122    1
    88    59   123    1
    89    60    61    2
    90     1    47    1
    91     1    62    1
    92     2    63    1
    93     3    64    1
    94     4    65    1
    95     5     6    1
    96     7     8    2
    97     9    78    1
    98    15    79    1
    99    18    80    1
   100    18    81    1
   101    19    82    1
   102    19    83    1
   103    20    23    1
   104    21    84    1
   105    21    85    1
   106    22    86    1
   107    22    87    1
   108    27    45    1
   109    28    34    1
   110    32    58    1
   111    33    46    2
   112    36    51    1
   113    36    66    1
   114    37    52    1
   115    37    67    1
   116    38    53    1
   117    38    68    1
   118    42    48    1
   119    42    72    1
   120    43    44    2
   121    60    73    1
   122    61    74    1
   123    39    69    1
   124    39    57    1
   125    40    70    1
   126    40    50    1
   127    41    71    1
   128    41    49    1
