@<TRIPOS>MOLECULE
*****
 123 128 0 0 0
SMALL
GASTEIGER

@<TRIPOS>ATOM
     1 C         5.313136   1.142086   0.510167 C.3        1 UNL1     0.0009
     2 C         6.879704   1.611719   -0.362958 C.2        1 UNL1     -0.0787
     3 C         8.142989   1.23888   -0.963915 C.2        1 UNL1     -0.0649
     4 C         9.225278   2.228627   -1.809733 C.2        1 UNL1     -0.0542
     5 C         10.299527   2.250895   -2.73308 C.2        1 UNL1     0.0115
     6 C         11.330145   1.363164   -3.48347 C.3        1 UNL1     -0.0348
     7 C         10.647173   3.624601   -3.487444 C.2        1 UNL1     0.2441
     8 O         11.584835   4.341486   -3.165898 O.2        1 UNL1     -0.2702
     9 N         9.966189   3.8183   -4.701895 N.am        1 UNL1     -0.2772
     10 C         8.756521   4.435725   -4.480961 C.2        1 UNL1     0.1049
     11 C         7.758338   3.648836   -4.122272 C.2        1 UNL1     0.0801
     12 C         7.705054   6.373049   -3.298368 C.ar        1 UNL1     0.0753
     13 C         6.763672   5.435901   -2.765299 C.ar        1 UNL1     0.0305
     14 C         6.681594   4.065364   -3.26524 C.2        1 UNL1     0.0924
     15 N         7.667463   2.307914   -4.136307 N.pl3        1 UNL1     -0.3170
     16 C         6.310738   1.95602   -3.811158 C.3        1 UNL1     0.1275
     17 N         5.816235   3.10183   -2.962447 N.2        1 UNL1     -0.2557
     18 C         5.50658   2.010686   -5.106551 C.3        1 UNL1     0.0016
     19 C         6.165154   1.095804   -6.126777 C.3        1 UNL1     0.0026
     20 N         6.199935   -0.256939   -5.588349 N.3        1 UNL1     -0.3018
     21 C         6.899922   -0.399492   -4.310044 C.3        1 UNL1     0.0026
     22 C         6.219013   0.524649   -3.298995 C.3        1 UNL1     0.0016
     23 C         6.529951   -1.253385   -6.587763 C.3        1 UNL1     0.0012
     24 C         5.371116   -1.422544   -7.582872 C.3        1 UNL1     -0.0339
     25 C         5.584348   -0.570091   -8.844583 C.3        1 UNL1     -0.0615
     26 C         5.188392   -2.891057   -7.92472 C.3        1 UNL1     -0.0615
     27 C         7.69674   7.708612   -2.902995 C.ar        1 UNL1     0.1347
     28 C         6.77326   8.230647   -2.014899 C.ar        1 UNL1     0.0342
     29 C         5.887258   7.279383   -1.466024 C.ar        1 UNL1     0.1435
     30 C         5.907086   5.931159   -1.825355 C.ar        1 UNL1     0.0774
     31 O         4.860006   7.649685   -0.67064 O.3        1 UNL1     -0.4436
     32 C         3.951402   6.538974   -0.711054 C.3        1 UNL1     0.3143
     33 C         4.801798   5.345315   -1.096046 C.2        1 UNL1     0.2504
     34 C         6.544136   9.690353   -1.737661 C.3        1 UNL1     -0.0327
     35 O         3.496076   6.312145   0.628527 O.2        1 UNL1     -0.4528
     36 C         -0.007717   4.887456   0.309492 C.3        1 UNL1     0.0854
     37 C         -0.493536   3.600553   -0.462119 C.3        1 UNL1     0.0236
     38 C         -1.30756   2.544983   0.429442 C.3        1 UNL1     0.1131
     39 C         -0.70605   2.051639   1.806782 C.3        1 UNL1     0.0200
     40 C         0.908308   1.649689   1.928119 C.3        1 UNL1     0.0661
     41 C         1.755757   0.614787   0.884846 C.3        1 UNL1     0.0091
     42 C         3.511444   0.637622   0.353389 C.3        1 UNL1     0.0661
     43 C         8.633171   5.895461   -4.353246 C.2        1 UNL1     0.2131
     44 O         9.188895   6.634349   -5.14568 O.2        1 UNL1     -0.2851
     45 O         8.675815   8.545037   -3.435201 O.3        1 UNL1     -0.5056
     46 O         4.61971   4.176211   -0.83935 O.2        1 UNL1     -0.2836
     47 C         5.603134   0.815589   1.999892 C.3        1 UNL1     -0.0566
     48 O         3.723549   -0.809185   0.600124 O.3        1 UNL1     -0.3909
     49 C         0.922219   0.382901   -0.355693 C.3        1 UNL1     -0.0577
     50 O         1.689166   2.792507   2.214388 O.3        1 UNL1     -0.3910
     51 O         -0.191289   4.873728   1.707184 O.3        1 UNL1     -0.3753
     52 C         0.536062   3.150853   -1.549614 C.3        1 UNL1     -0.0564
     53 O         -2.050724   1.522425   -0.379514 O.3        1 UNL1     -0.4608
     54 C         -2.489622   0.309132   0.082244 C.2        1 UNL1     0.3042
     55 O         -2.076254   -0.805136   -0.236144 O.2        1 UNL1     -0.2512
     56 C         -3.557607   0.416213   1.133271 C.3        1 UNL1     0.0332
     57 C         -1.336555   2.960904   2.961718 C.3        1 UNL1     -0.0567
     58 C         2.954087   6.831139   -1.856275 C.3        1 UNL1     0.0210
     59 C         -0.356879   6.159762   2.302634 C.3        1 UNL1     0.0372
     60 C         1.410366   5.268475   0.066539 C.2        1 UNL1     -0.0208
     61 C         2.362531   5.646035   0.92069 C.2        1 UNL1     0.0882
     62 H         5.001175   2.192876   0.475084 H        1 UNL1     0.0365
     63 H         6.785481   2.699528   -0.37919 H        1 UNL1     0.0576
     64 H         8.442661   0.193306   -1.064303 H        1 UNL1     0.0615
     65 H         8.885488   3.242189   -1.580127 H        1 UNL1     0.0622
     66 H         -0.614609   5.704101   -0.106225 H        1 UNL1     0.0645
     67 H         -1.28395   3.974401   -1.135946 H        1 UNL1     0.0362
     68 H         -2.178789   3.162566   0.696037 H        1 UNL1     0.0741
     69 H         -1.201209   1.133606   2.093909 H        1 UNL1     0.0359
     70 H         0.892327   1.080732   2.877377 H        1 UNL1     0.0600
     71 H         1.623965   -0.347251   1.417829 H        1 UNL1     0.0348
     72 H         3.464678   1.240967   1.271596 H        1 UNL1     0.0602
     73 H         1.581289   5.329552   -0.979551 H        1 UNL1     0.0628
     74 H         2.287706   5.55952   2.005196 H        1 UNL1     0.1022
     75 H         11.191597   0.288391   -3.21384 H        1 UNL1     0.0279
     76 H         11.255028   1.34407   -4.568395 H        1 UNL1     0.0279
     77 H         12.363928   1.53846   -3.151408 H        1 UNL1     0.0279
     78 H         9.775536   2.916949   -5.134671 H        1 UNL1     0.1553
     79 H         8.267928   1.714621   -4.678874 H        1 UNL1     0.1484
     80 H         4.474446   1.702859   -4.899893 H        1 UNL1     0.0317
     81 H         5.456927   3.034181   -5.493389 H        1 UNL1     0.0317
     82 H         7.174799   1.44219   -6.39238 H        1 UNL1     0.0428
     83 H         5.576836   1.151274   -7.043213 H        1 UNL1     0.0428
     84 H         6.842878   -1.408011   -3.888798 H        1 UNL1     0.0428
     85 H         7.978055   -0.213267   -4.411374 H        1 UNL1     0.0428
     86 H         6.668077   0.29668   -2.350121 H        1 UNL1     0.0317
     87 H         5.172623   0.225176   -3.163053 H        1 UNL1     0.0317
     88 H         7.414612   -0.905991   -7.137296 H        1 UNL1     0.0429
     89 H         6.795814   -2.211532   -6.122957 H        1 UNL1     0.0429
     90 H         4.436743   -1.108233   -7.102904 H        1 UNL1     0.0308
     91 H         6.525084   -0.824338   -9.342053 H        1 UNL1     0.0233
     92 H         4.758845   -0.706625   -9.547087 H        1 UNL1     0.0233
     93 H         5.62212   0.503159   -8.622003 H        1 UNL1     0.0233
     94 H         4.498747   -2.99939   -8.768811 H        1 UNL1     0.0233
     95 H         6.147474   -3.329347   -8.214594 H        1 UNL1     0.0233
     96 H         4.786392   -3.451336   -7.075926 H        1 UNL1     0.0233
     97 H         5.737239   9.848623   -1.028367 H        1 UNL1     0.0280
     98 H         7.428071   10.172128   -1.299701 H        1 UNL1     0.0280
     99 H         6.285965   10.208115   -2.675939 H        1 UNL1     0.0280
     100 H         8.343704   9.319938   -3.853357 H        1 UNL1     0.2922
     101 H         4.670631   0.582483   2.513464 H        1 UNL1     0.0236
     102 H         6.165686   1.59779   2.508499 H        1 UNL1     0.0236
     103 H         6.219177   -0.092147   2.112584 H        1 UNL1     0.0236
     104 H         4.097936   -0.903523   1.497847 H        1 UNL1     0.2098
     105 H         0.710274   1.281978   -0.928887 H        1 UNL1     0.0234
     106 H         1.291675   -0.405088   -1.011821 H        1 UNL1     0.0234
     107 H         0.0   -0.0   0.0 H        1 UNL1     0.0234
     108 H         1.615098   3.393781   1.448391 H        1 UNL1     0.2098
     109 H         1.520414   2.918576   -1.119718 H        1 UNL1     0.0234
     110 H         0.187582   2.301624   -2.147205 H        1 UNL1     0.0234
     111 H         0.714272   3.942067   -2.289998 H        1 UNL1     0.0234
     112 H         -3.858527   -0.583394   1.461263 H        1 UNL1     0.0342
     113 H         -3.241003   1.025844   1.978229 H        1 UNL1     0.0342
     114 H         -4.434682   0.901168   0.683024 H        1 UNL1     0.0342
     115 H         -2.431024   2.872121   2.999701 H        1 UNL1     0.0234
     116 H         -0.954264   2.738874   3.960019 H        1 UNL1     0.0234
     117 H         -1.216616   4.043498   2.784104 H        1 UNL1     0.0234
     118 H         2.13502   7.497161   -1.532932 H        1 UNL1     0.0309
     119 H         3.432243   7.256576   -2.744292 H        1 UNL1     0.0309
     120 H         2.429028   5.931732   -2.196108 H        1 UNL1     0.0309
     121 H         0.556574   6.726173   2.123359 H        1 UNL1     0.0524
     122 H         -1.191052   6.72434   1.853807 H        1 UNL1     0.0524
     123 H         -0.532636   6.059934   3.369985 H        1 UNL1     0.0524
@<TRIPOS>BOND
     1     1     2    1
     2     1    42    1
     3     2     3    2
     4     3     4    1
     5     4     5    2
     6     5     7    1
     7     6    75    1
     8     6    76    1
     9     6    77    1
    10     7     9   am
    11     9    10    1
    12    10    11    2
    13    10    43    1
    14    11    14    1
    15    11    15    1
    16    12    13   ar
    17    12    27   ar
    18    12    43    1
    19    13    14    1
    20    13    30   ar
    21    14    17    2
    22    15    16    1
    23    16    17    1
    24    16    18    1
    25    16    22    1
    26    18    19    1
    27    19    20    1
    28    20    21    1
    29    21    22    1
    30    23    24    1
    31    23    88    1
    32    23    89    1
    33    24    25    1
    34    24    26    1
    35    24    90    1
    36    25    91    1
    37    25    92    1
    38    25    93    1
    39    26    94    1
    40    26    95    1
    41    26    96    1
    42    27    28   ar
    43    28    29   ar
    44    29    30   ar
    45    29    31    1
    46    30    33    1
    47    31    32    1
    48    32    33    1
    49    32    35    1
    50    34    97    1
    51    34    98    1
    52    34    99    1
    53    35    61    1
    54    36    37    1
    55    36    60    1
    56    37    38    1
    57    38    39    1
    58    39    40    1
    59    40    41    1
    60    41    42    1
    61    45   100    1
    62    47   101    1
    63    47   102    1
    64    47   103    1
    65    48   104    1
    66    49   105    1
    67    49   106    1
    68    49   107    1
    69    50   108    1
    70    51    59    1
    71    52   109    1
    72    52   110    1
    73    52   111    1
    74    53    54    1
    75    54    55    2
    76    54    56    1
    77    56   112    1
    78    56   113    1
    79    56   114    1
    80    57   115    1
    81    57   116    1
    82    57   117    1
    83    58   118    1
    84    58   119    1
    85    58   120    1
    86    59   121    1
    87    59   122    1
    88    59   123    1
    89    60    61    2
    90     1    47    1
    91     1    62    1
    92     2    63    1
    93     3    64    1
    94     4    65    1
    95     5     6    1
    96     7     8    2
    97     9    78    1
    98    15    79    1
    99    18    80    1
   100    18    81    1
   101    19    82    1
   102    19    83    1
   103    20    23    1
   104    21    84    1
   105    21    85    1
   106    22    86    1
   107    22    87    1
   108    27    45    1
   109    28    34    1
   110    32    58    1
   111    33    46    2
   112    36    51    1
   113    36    66    1
   114    37    52    1
   115    37    67    1
   116    38    53    1
   117    38    68    1
   118    42    48    1
   119    42    72    1
   120    43    44    2
   121    60    73    1
   122    61    74    1
   123    39    69    1
   124    39    57    1
   125    40    70    1
   126    40    50    1
   127    41    71    1
   128    41    49    1
