@<TRIPOS>MOLECULE
*****
 123 128 0 0 0
SMALL
GASTEIGER

@<TRIPOS>ATOM
     1 C         5.151597   1.863154   -0.0382 C.3        1 UNL1     0.0009
     2 C         6.711032   2.082303   0.940152 C.2        1 UNL1     -0.0787
     3 C         7.606345   2.925101   1.704451 C.2        1 UNL1     -0.0649
     4 C         8.998154   2.465616   2.551857 C.2        1 UNL1     -0.0542
     5 C         9.908046   2.830181   3.57473 C.2        1 UNL1     0.0115
     6 C         10.343269   3.987142   4.515658 C.3        1 UNL1     -0.0348
     7 C         10.850123   1.699416   4.215705 C.2        1 UNL1     0.2441
     8 O         12.030588   1.571383   3.921366 O.2        1 UNL1     -0.2702
     9 N         10.300913   1.035241   5.326287 N.am        1 UNL1     -0.2772
     10 C         9.556047   -0.047373   4.918313 C.2        1 UNL1     0.1049
     11 C         8.31654   0.208   4.540654 C.2        1 UNL1     0.0801
     12 C         9.632117   -2.06355   3.439604 C.ar        1 UNL1     0.0753
     13 C         8.376027   -1.626244   2.910823 C.ar        1 UNL1     0.0305
     14 C         7.615706   -0.547504   3.537947 C.2        1 UNL1     0.0924
     15 N         7.582896   1.325136   4.68314 N.pl3        1 UNL1     -0.3170
     16 C         6.241422   1.027238   4.256573 C.3        1 UNL1     0.1275
     17 N         6.403616   -0.083332   3.247587 N.2        1 UNL1     -0.2557
     18 C         5.513683   0.413337   5.448724 C.3        1 UNL1     0.0016
     19 C         5.600147   1.37804   6.620671 C.3        1 UNL1     0.0026
     20 N         4.992962   2.643133   6.230935 N.3        1 UNL1     -0.3018
     21 C         5.5863   3.281023   5.053898 C.3        1 UNL1     0.0026
     22 C         5.484496   2.296324   3.887751 C.3        1 UNL1     0.0016
     23 C         4.753971   3.524387   7.35651 C.3        1 UNL1     0.0012
     24 C         3.620083   2.977155   8.237755 C.3        1 UNL1     -0.0339
     25 C         2.790919   4.114001   8.857534 C.3        1 UNL1     -0.0615
     26 C         2.750781   2.024334   7.435742 C.3        1 UNL1     -0.0615
     27 C         10.292269   -3.169879   2.91012 C.ar        1 UNL1     0.1347
     28 C         9.777815   -3.939212   1.881765 C.ar        1 UNL1     0.0342
     29 C         8.563788   -3.460969   1.344563 C.ar        1 UNL1     0.1435
     30 C         7.908981   -2.333094   1.840895 C.ar        1 UNL1     0.0774
     31 O         7.881052   -4.161396   0.412747 O.3        1 UNL1     -0.4436
     32 C         6.545424   -3.638526   0.472552 C.3        1 UNL1     0.3143
     33 C         6.689278   -2.251154   1.064766 C.2        1 UNL1     0.2504
     34 C         10.301086   -5.275344   1.433389 C.3        1 UNL1     -0.0327
     35 O         6.092616   -3.471335   -0.876619 O.2        1 UNL1     -0.4528
     36 C         2.329183   -3.956206   -0.778865 C.3        1 UNL1     0.0854
     37 C         1.246402   -3.181185   0.066388 C.3        1 UNL1     0.0236
     38 C         0.058329   -2.529943   -0.791582 C.3        1 UNL1     0.1131
     39 C         0.3988   -1.621091   -2.040716 C.3        1 UNL1     0.0200
     40 C         1.615689   -0.483706   -1.951409 C.3        1 UNL1     0.0661
     41 C         1.807409   0.672119   -0.724656 C.3        1 UNL1     0.0091
     42 C         3.327924   1.417066   -0.018617 C.3        1 UNL1     0.0661
     43 C         10.165452   -1.353969   4.628851 C.2        1 UNL1     0.2131
     44 O         10.977909   -1.840221   5.394494 O.2        1 UNL1     -0.2851
     45 O         11.532156   -3.501717   3.452339 O.3        1 UNL1     -0.5056
     46 O         5.970955   -1.28855   0.912258 O.2        1 UNL1     -0.2836
     47 C         5.306351   2.494206   -1.448096 C.3        1 UNL1     -0.0566
     48 O         2.817571   2.807504   -0.091669 O.3        1 UNL1     -0.3909
     49 C         0.916577   0.300315   0.439678 C.3        1 UNL1     -0.0577
     50 O         2.865638   -1.060942   -2.271017 O.3        1 UNL1     -0.3910
     51 O         2.219662   -3.835673   -2.179189 O.3        1 UNL1     -0.3753
     52 C         1.880502   -2.451846   1.295587 C.3        1 UNL1     -0.0564
     53 O         -1.121524   -2.112394   0.036623 O.3        1 UNL1     -0.4608
     54 C         -1.894725   -1.002615   -0.183561 C.2        1 UNL1     0.3042
     55 O         -3.121929   -0.949378   -0.254099 O.2        1 UNL1     -0.2512
     56 C         -1.10388   0.270358   -0.287561 C.3        1 UNL1     0.0332
     57 C         0.339596   -2.548575   -3.342424 C.3        1 UNL1     -0.0567
     58 C         5.771185   -4.529584   1.471601 C.3        1 UNL1     0.0210
     59 C         2.498316   -2.533797   -2.692354 C.3        1 UNL1     0.0372
     60 C         3.741736   -3.642672   -0.430222 C.2        1 UNL1     -0.0208
     61 C         4.791222   -3.394741   -1.214986 C.2        1 UNL1     0.0882
     62 H         5.390445   0.798053   -0.144136 H        1 UNL1     0.0365
     63 H         7.158596   1.091861   0.834408 H        1 UNL1     0.0576
     64 H         7.353772   3.960769   1.942584 H        1 UNL1     0.0615
     65 H         9.205426   1.45668   2.18502 H        1 UNL1     0.0622
     66 H         2.181057   -5.012803   -0.514843 H        1 UNL1     0.0645
     67 H         0.711746   -3.977899   0.612235 H        1 UNL1     0.0362
     68 H         -0.389432   -3.444466   -1.209531 H        1 UNL1     0.0741
     69 H         -0.46889   -1.021569   -2.281748 H        1 UNL1     0.0359
     70 H         1.36323   0.135317   -2.833529 H        1 UNL1     0.0600
     71 H         1.245233   1.51807   -1.166561 H        1 UNL1     0.0348
     72 H         3.618944   1.00064   -0.993918 H        1 UNL1     0.0602
     73 H         3.877719   -3.760897   0.616095 H        1 UNL1     0.0628
     74 H         4.728218   -3.203118   -2.28669 H        1 UNL1     0.1022
     75 H         10.450008   4.939542   3.942445 H        1 UNL1     0.0279
     76 H         9.643023   4.263466   5.300751 H        1 UNL1     0.0279
     77 H         11.362026   3.855303   4.908664 H        1 UNL1     0.0279
     78 H         9.677423   1.664731   5.827366 H        1 UNL1     0.1553
     79 H         7.795056   2.050363   5.343418 H        1 UNL1     0.1484
     80 H         4.471921   0.215776   5.168603 H        1 UNL1     0.0317
     81 H         5.953572   -0.552113   5.720855 H        1 UNL1     0.0317
     82 H         6.638682   1.523136   6.952792 H        1 UNL1     0.0428
     83 H         5.076565   0.919889   7.460319 H        1 UNL1     0.0428
     84 H         5.062071   4.18731   4.735088 H        1 UNL1     0.0428
     85 H         6.613202   3.620804   5.247131 H        1 UNL1     0.0428
     86 H         5.803854   2.842007   3.019288 H        1 UNL1     0.0317
     87 H         4.431476   2.074768   3.675243 H        1 UNL1     0.0317
     88 H         5.672364   3.568954   7.956396 H        1 UNL1     0.0429
     89 H         4.537698   4.54751   7.023016 H        1 UNL1     0.0429
     90 H         4.052174   2.378223   9.048181 H        1 UNL1     0.0308
     91 H         2.539088   4.874504   8.112336 H        1 UNL1     0.0233
     92 H         1.870026   3.724675   9.297977 H        1 UNL1     0.0233
     93 H         3.324348   4.626426   9.667292 H        1 UNL1     0.0233
     94 H         1.761103   1.936969   7.89698 H        1 UNL1     0.0233
     95 H         2.616705   2.406224   6.419796 H        1 UNL1     0.0233
     96 H         3.196263   1.027023   7.382036 H        1 UNL1     0.0233
     97 H         11.223922   -5.542287   1.939695 H        1 UNL1     0.0280
     98 H         9.5953   -6.088839   1.646338 H        1 UNL1     0.0280
     99 H         10.496793   -5.249998   0.348884 H        1 UNL1     0.0280
     100 H         12.132653   -2.780927   3.526416 H        1 UNL1     0.2922
     101 H         5.444491   1.707759   -2.189766 H        1 UNL1     0.0236
     102 H         6.093679   3.245655   -1.497312 H        1 UNL1     0.0236
     103 H         4.392857   3.022958   -1.767694 H        1 UNL1     0.0236
     104 H         2.309782   2.892057   -0.922315 H        1 UNL1     0.2098
     105 H         1.284606   -0.527774   1.040206 H        1 UNL1     0.0234
     106 H         0.632825   1.134948   1.080615 H        1 UNL1     0.0234
     107 H         -0.0   0.0   0.0 H        1 UNL1     0.0234
     108 H         3.556728   -0.43213   -1.986838 H        1 UNL1     0.2098
     109 H         2.591932   -1.670396   0.994068 H        1 UNL1     0.0234
     110 H         1.134528   -2.02581   1.975117 H        1 UNL1     0.0234
     111 H         2.45102   -3.14538   1.92762 H        1 UNL1     0.0234
     112 H         -1.782825   1.12545   -0.359659 H        1 UNL1     0.0342
     113 H         -0.410652   0.390884   0.543554 H        1 UNL1     0.0342
     114 H         -0.511573   0.231734   -1.212139 H        1 UNL1     0.0342
     115 H         -0.011788   -1.993976   -4.223411 H        1 UNL1     0.0234
     116 H         1.294678   -3.008691   -3.603502 H        1 UNL1     0.0234
     117 H         -0.417709   -3.348778   -3.278353 H        1 UNL1     0.0234
     118 H         6.449128   -5.128995   2.10414 H        1 UNL1     0.0309
     119 H         5.089667   -3.962877   2.113924 H        1 UNL1     0.0309
     120 H         5.157301   -5.286568   0.971373 H        1 UNL1     0.0309
     121 H         3.575579   -2.380347   -2.634789 H        1 UNL1     0.0524
     122 H         2.204143   -2.429193   -3.749973 H        1 UNL1     0.0524
     123 H         1.980466   -1.77996   -2.106134 H        1 UNL1     0.0524
@<TRIPOS>BOND
     1     1     2    1
     2     1    42    1
     3     2     3    2
     4     3     4    1
     5     4     5    2
     6     5     7    1
     7     6    75    1
     8     6    76    1
     9     6    77    1
    10     7     9   am
    11     9    10    1
    12    10    11    2
    13    10    43    1
    14    11    14    1
    15    11    15    1
    16    12    13   ar
    17    12    27   ar
    18    12    43    1
    19    13    14    1
    20    13    30   ar
    21    14    17    2
    22    15    16    1
    23    16    17    1
    24    16    18    1
    25    16    22    1
    26    18    19    1
    27    19    20    1
    28    20    21    1
    29    21    22    1
    30    23    24    1
    31    23    88    1
    32    23    89    1
    33    24    25    1
    34    24    26    1
    35    24    90    1
    36    25    91    1
    37    25    92    1
    38    25    93    1
    39    26    94    1
    40    26    95    1
    41    26    96    1
    42    27    28   ar
    43    28    29   ar
    44    29    30   ar
    45    29    31    1
    46    30    33    1
    47    31    32    1
    48    32    33    1
    49    32    35    1
    50    34    97    1
    51    34    98    1
    52    34    99    1
    53    35    61    1
    54    36    37    1
    55    36    60    1
    56    37    38    1
    57    38    39    1
    58    39    40    1
    59    40    41    1
    60    41    42    1
    61    45   100    1
    62    47   101    1
    63    47   102    1
    64    47   103    1
    65    48   104    1
    66    49   105    1
    67    49   106    1
    68    49   107    1
    69    50   108    1
    70    51    59    1
    71    52   109    1
    72    52   110    1
    73    52   111    1
    74    53    54    1
    75    54    55    2
    76    54    56    1
    77    56   112    1
    78    56   113    1
    79    56   114    1
    80    57   115    1
    81    57   116    1
    82    57   117    1
    83    58   118    1
    84    58   119    1
    85    58   120    1
    86    59   121    1
    87    59   122    1
    88    59   123    1
    89    60    61    2
    90     1    47    1
    91     1    62    1
    92     2    63    1
    93     3    64    1
    94     4    65    1
    95     5     6    1
    96     7     8    2
    97     9    78    1
    98    15    79    1
    99    18    80    1
   100    18    81    1
   101    19    82    1
   102    19    83    1
   103    20    23    1
   104    21    84    1
   105    21    85    1
   106    22    86    1
   107    22    87    1
   108    27    45    1
   109    28    34    1
   110    32    58    1
   111    33    46    2
   112    36    51    1
   113    36    66    1
   114    37    52    1
   115    37    67    1
   116    38    53    1
   117    38    68    1
   118    42    48    1
   119    42    72    1
   120    43    44    2
   121    60    73    1
   122    61    74    1
   123    39    69    1
   124    39    57    1
   125    40    70    1
   126    40    50    1
   127    41    71    1
   128    41    49    1
