@<TRIPOS>MOLECULE
*****
 123 128 0 0 0
SMALL
GASTEIGER

@<TRIPOS>ATOM
     1 C         5.166416   1.760246   0.45711 C.3        1 UNL1     0.0009
     2 C         6.595868   2.568958   -0.402942 C.2        1 UNL1     -0.0787
     3 C         7.873657   2.473151   -1.076828 C.2        1 UNL1     -0.0649
     4 C         8.743561   3.709724   -1.838741 C.2        1 UNL1     -0.0542
     5 C         9.756906   4.004021   -2.784045 C.2        1 UNL1     0.0115
     6 C         10.880877   3.380508   -3.656538 C.3        1 UNL1     -0.0348
     7 C         9.845138   5.487123   -3.392003 C.2        1 UNL1     0.2441
     8 O         10.669647   6.310772   -3.020098 O.2        1 UNL1     -0.2702
     9 N         9.086972   5.691779   -4.557958 N.am        1 UNL1     -0.2772
     10 C         7.805463   6.075871   -4.236198 C.2        1 UNL1     0.1049
     11 C         6.963673   5.102804   -3.938282 C.2        1 UNL1     0.0801
     12 C         6.512676   7.680542   -2.818077 C.ar        1 UNL1     0.0753
     13 C         5.75895   6.551253   -2.365076 C.ar        1 UNL1     0.0305
     14 C         5.874563   5.245428   -3.010449 C.2        1 UNL1     0.0924
     15 N         7.088147   3.774001   -4.09739 N.pl3        1 UNL1     -0.3170
     16 C         5.821631   3.172273   -3.774724 C.3        1 UNL1     0.1275
     17 N         5.189466   4.126706   -2.791288 N.2        1 UNL1     -0.2557
     18 C         4.960563   3.228755   -5.032927 C.3        1 UNL1     0.0016
     19 C         5.709665   2.545631   -6.165967 C.3        1 UNL1     0.0026
     20 N         5.985261   1.168344   -5.781057 N.3        1 UNL1     -0.3018
     21 C         6.756902   1.010331   -4.546565 C.3        1 UNL1     0.0026
     22 C         5.983874   1.699826   -3.420991 C.3        1 UNL1     0.0016
     23 C         6.424409   0.349115   -6.893108 C.3        1 UNL1     0.0012
     24 C         5.263227   0.096564   -7.867598 C.3        1 UNL1     -0.0339
     25 C         5.32903   1.042424   -9.078001 C.3        1 UNL1     -0.0615
     26 C         5.250932   -1.360328   -8.29666 C.3        1 UNL1     -0.0615
     27 C         6.308739   8.948109   -2.27789 C.ar        1 UNL1     0.1347
     28 C         5.355282   9.216151   -1.311907 C.ar        1 UNL1     0.0342
     29 C         4.659148   8.080459   -0.846325 C.ar        1 UNL1     0.1435
     30 C         4.878117   6.798611   -1.352425 C.ar        1 UNL1     0.0774
     31 O         3.623414   8.19228   0.013767 O.3        1 UNL1     -0.4436
     32 C         2.903509   6.95782   -0.123043 C.3        1 UNL1     0.3143
     33 C         3.915516   5.966592   -0.661115 C.2        1 UNL1     0.2504
     34 C         4.908326   10.581547   -0.869161 C.3        1 UNL1     -0.0327
     35 O         2.55228   6.521123   1.195739 O.2        1 UNL1     -0.4528
     36 C         -0.689057   4.581697   0.820972 C.3        1 UNL1     0.0854
     37 C         -0.997392   3.319922   -0.073666 C.3        1 UNL1     0.0236
     38 C         -1.590141   2.058053   0.718848 C.3        1 UNL1     0.1131
     39 C         -0.854888   1.529465   2.015871 C.3        1 UNL1     0.0200
     40 C         0.806845   1.387534   2.046446 C.3        1 UNL1     0.0661
     41 C         1.760346   0.620081   0.871941 C.3        1 UNL1     0.0091
     42 C         3.463485   0.98599   0.296761 C.3        1 UNL1     0.0661
     43 C         7.455942   7.474223   -3.944994 C.2        1 UNL1     0.2131
     44 O         7.849254   8.372733   -4.666605 O.2        1 UNL1     -0.2851
     45 O         7.1158   9.984694   -2.742197 O.3        1 UNL1     -0.5056
     46 O         3.93495   4.763173   -0.529738 O.2        1 UNL1     -0.2836
     47 C         5.572943   1.33249   1.892987 C.3        1 UNL1     -0.0566
     48 O         3.915617   -0.424094   0.37649 O.3        1 UNL1     -0.3909
     49 C         0.91871   0.384944   -0.362504 C.3        1 UNL1     -0.0577
     50 O         1.40692   2.606926   2.434668 O.3        1 UNL1     -0.3910
     51 O         -0.803787   4.392593   2.213275 O.3        1 UNL1     -0.3753
     52 C         0.039977   3.161012   -1.232787 C.3        1 UNL1     -0.0564
     53 O         -2.196268   1.017228   -0.176484 O.3        1 UNL1     -0.4608
     54 C         -2.425662   -0.289822   0.165465 C.2        1 UNL1     0.3042
     55 O         -1.856204   -1.28788   -0.274348 O.2        1 UNL1     -0.2512
     56 C         -3.459922   -0.457183   1.242038 C.3        1 UNL1     0.0332
     57 C         -1.569237   2.197662   3.281332 C.3        1 UNL1     -0.0567
     58 C         1.820837   7.199933   -1.200416 C.3        1 UNL1     0.0210
     59 C         -1.114768   5.571367   2.954658 C.3        1 UNL1     0.0372
     60 C         0.637065   5.213509   0.58144 C.2        1 UNL1     -0.0208
     61 C         1.554629   5.651238   1.444698 C.2        1 UNL1     0.0882
     62 H         4.688941   2.743441   0.546854 H        1 UNL1     0.0365
     63 H         6.328026   3.622244   -0.296552 H        1 UNL1     0.0576
     64 H         8.331969   1.507157   -1.300242 H        1 UNL1     0.0615
     65 H         8.256741   4.624278   -1.48934 H        1 UNL1     0.0622
     66 H         -1.4373   5.326428   0.515103 H        1 UNL1     0.0645
     67 H         -1.867521   3.627048   -0.679561 H        1 UNL1     0.0362
     68 H         -2.535871   2.493099   1.076413 H        1 UNL1     0.0741
     69 H         -1.182961   0.517773   2.214003 H        1 UNL1     0.0359
     70 H         0.925715   0.727983   2.927311 H        1 UNL1     0.0600
     71 H         1.808881   -0.400728   1.299201 H        1 UNL1     0.0348
     72 H         3.362854   1.474562   1.276805 H        1 UNL1     0.0602
     73 H         0.747861   5.41038   -0.455967 H        1 UNL1     0.0628
     74 H         1.544424   5.441189   2.514751 H        1 UNL1     0.1022
     75 H         10.909986   2.271977   -3.524836 H        1 UNL1     0.0279
     76 H         10.773519   3.485689   -4.733794 H        1 UNL1     0.0279
     77 H         11.888321   3.6654   -3.319503 H        1 UNL1     0.0279
     78 H         9.023475   4.821378   -5.081835 H        1 UNL1     0.1553
     79 H         7.750353   3.347068   -4.718796 H        1 UNL1     0.1484
     80 H         4.001614   2.735868   -4.832315 H        1 UNL1     0.0317
     81 H         4.729976   4.264851   -5.303086 H        1 UNL1     0.0317
     82 H         6.637562   3.078787   -6.420258 H        1 UNL1     0.0428
     83 H         5.078668   2.59888   -7.053693 H        1 UNL1     0.0428
     84 H         6.881462   -0.03217   -4.237553 H        1 UNL1     0.0428
     85 H         7.785507   1.38052   -4.657234 H        1 UNL1     0.0428
     86 H         6.506672   1.451134   -2.516102 H        1 UNL1     0.0317
     87 H         5.006289   1.220156   -3.289311 H        1 UNL1     0.0317
     88 H         7.215889   0.892303   -7.425837 H        1 UNL1     0.0429
     89 H         6.861297   -0.595507   -6.544406 H        1 UNL1     0.0429
     90 H         4.313518   0.263081   -7.345546 H        1 UNL1     0.0308
     91 H         6.280869   0.943903   -9.608469 H        1 UNL1     0.0233
     92 H         4.509386   0.840029   -9.77142 H        1 UNL1     0.0233
     93 H         5.23286   2.096337   -8.790156 H        1 UNL1     0.0233
     94 H         4.563136   -1.500631   -9.137545 H        1 UNL1     0.0233
     95 H         6.249814   -1.661796   -8.62425 H        1 UNL1     0.0233
     96 H         4.935178   -2.014443   -7.479102 H        1 UNL1     0.0233
     97 H         4.113538   10.530629   -0.130953 H        1 UNL1     0.0280
     98 H         5.720483   11.150147   -0.397622 H        1 UNL1     0.0280
     99 H         4.536627   11.148132   -1.738596 H        1 UNL1     0.0280
     100 H         6.645308   10.738778   -3.051419 H        1 UNL1     0.2922
     101 H         4.7112   0.908713   2.408223 H        1 UNL1     0.0236
     102 H         6.036776   2.135804   2.464413 H        1 UNL1     0.0236
     103 H         6.321744   0.522885   1.887542 H        1 UNL1     0.0236
     104 H         4.335676   -0.550222   1.249767 H        1 UNL1     0.2098
     105 H         0.700433   1.282959   -0.934985 H        1 UNL1     0.0234
     106 H         1.28557   -0.402685   -1.020518 H        1 UNL1     0.0234
     107 H         0.0   -0.0   0.0 H        1 UNL1     0.0234
     108 H         1.217465   3.259681   1.733394 H        1 UNL1     0.2098
     109 H         1.068901   3.06238   -0.85956 H        1 UNL1     0.0234
     110 H         -0.188319   2.325398   -1.90314 H        1 UNL1     0.0234
     111 H         0.046232   4.038213   -1.893413 H        1 UNL1     0.0234
     112 H         -3.579429   -1.518162   1.481594 H        1 UNL1     0.0342
     113 H         -3.220034   0.120076   2.133704 H        1 UNL1     0.0342
     114 H         -4.420212   -0.088965   0.855485 H        1 UNL1     0.0342
     115 H         -2.640651   1.957261   3.319644 H        1 UNL1     0.0234
     116 H         -1.133659   1.909921   4.240251 H        1 UNL1     0.0234
     117 H         -1.599596   3.300002   3.238141 H        1 UNL1     0.0234
     118 H         0.919536   7.680913   -0.781704 H        1 UNL1     0.0309
     119 H         2.182195   7.792079   -2.047166 H        1 UNL1     0.0309
     120 H         1.434852   6.266994   -1.62556 H        1 UNL1     0.0309
     121 H         -0.278924   6.261417   2.842617 H        1 UNL1     0.0524
     122 H         -2.017229   6.078612   2.574784 H        1 UNL1     0.0524
     123 H         -1.262015   5.328057   4.003091 H        1 UNL1     0.0524
@<TRIPOS>BOND
     1     1     2    1
     2     1    42    1
     3     2     3    2
     4     3     4    1
     5     4     5    2
     6     5     7    1
     7     6    75    1
     8     6    76    1
     9     6    77    1
    10     7     9   am
    11     9    10    1
    12    10    11    2
    13    10    43    1
    14    11    14    1
    15    11    15    1
    16    12    13   ar
    17    12    27   ar
    18    12    43    1
    19    13    14    1
    20    13    30   ar
    21    14    17    2
    22    15    16    1
    23    16    17    1
    24    16    18    1
    25    16    22    1
    26    18    19    1
    27    19    20    1
    28    20    21    1
    29    21    22    1
    30    23    24    1
    31    23    88    1
    32    23    89    1
    33    24    25    1
    34    24    26    1
    35    24    90    1
    36    25    91    1
    37    25    92    1
    38    25    93    1
    39    26    94    1
    40    26    95    1
    41    26    96    1
    42    27    28   ar
    43    28    29   ar
    44    29    30   ar
    45    29    31    1
    46    30    33    1
    47    31    32    1
    48    32    33    1
    49    32    35    1
    50    34    97    1
    51    34    98    1
    52    34    99    1
    53    35    61    1
    54    36    37    1
    55    36    60    1
    56    37    38    1
    57    38    39    1
    58    39    40    1
    59    40    41    1
    60    41    42    1
    61    45   100    1
    62    47   101    1
    63    47   102    1
    64    47   103    1
    65    48   104    1
    66    49   105    1
    67    49   106    1
    68    49   107    1
    69    50   108    1
    70    51    59    1
    71    52   109    1
    72    52   110    1
    73    52   111    1
    74    53    54    1
    75    54    55    2
    76    54    56    1
    77    56   112    1
    78    56   113    1
    79    56   114    1
    80    57   115    1
    81    57   116    1
    82    57   117    1
    83    58   118    1
    84    58   119    1
    85    58   120    1
    86    59   121    1
    87    59   122    1
    88    59   123    1
    89    60    61    2
    90     1    47    1
    91     1    62    1
    92     2    63    1
    93     3    64    1
    94     4    65    1
    95     5     6    1
    96     7     8    2
    97     9    78    1
    98    15    79    1
    99    18    80    1
   100    18    81    1
   101    19    82    1
   102    19    83    1
   103    20    23    1
   104    21    84    1
   105    21    85    1
   106    22    86    1
   107    22    87    1
   108    27    45    1
   109    28    34    1
   110    32    58    1
   111    33    46    2
   112    36    51    1
   113    36    66    1
   114    37    52    1
   115    37    67    1
   116    38    53    1
   117    38    68    1
   118    42    48    1
   119    42    72    1
   120    43    44    2
   121    60    73    1
   122    61    74    1
   123    39    69    1
   124    39    57    1
   125    40    70    1
   126    40    50    1
   127    41    71    1
   128    41    49    1
