@<TRIPOS>MOLECULE
*****
 123 128 0 0 0
SMALL
GASTEIGER

@<TRIPOS>ATOM
     1 C         -4.114871   -0.260821   0.194859 C.3        1 UNL1     0.0009
     2 C         -5.152671   -1.785222   0.385139 C.2        1 UNL1     -0.0787
     3 C         -5.932051   -2.85535   -0.200898 C.2        1 UNL1     -0.0649
     4 C         -6.630352   -4.183733   0.582768 C.2        1 UNL1     -0.0542
     5 C         -7.150864   -5.490313   0.412491 C.2        1 UNL1     0.0115
     6 C         -7.585597   -6.541806   -0.645191 C.3        1 UNL1     -0.0348
     7 C         -7.300603   -6.440492   1.697687 C.2        1 UNL1     0.2441
     8 O         -8.370837   -6.642641   2.254697 O.2        1 UNL1     -0.2702
     9 N         -6.171958   -7.228822   1.982025 N.am        1 UNL1     -0.2772
     10 C         -5.298978   -6.542284   2.794363 C.2        1 UNL1     0.1049
     11 C         -4.47873   -5.702591   2.18911 C.2        1 UNL1     0.0801
     12 C         -5.191276   -5.192048   4.89736 C.ar        1 UNL1     0.0753
     13 C         -4.480055   -4.209655   4.13731 C.ar        1 UNL1     0.0305
     14 C         -3.986799   -4.493224   2.79145 C.2        1 UNL1     0.0924
     15 N         -4.205359   -5.553449   0.881612 N.pl3        1 UNL1     -0.3170
     16 C         -3.116006   -4.620847   0.764057 C.3        1 UNL1     0.1275
     17 N         -3.232659   -3.747213   1.989161 N.2        1 UNL1     -0.2557
     18 C         -1.82271   -5.412949   0.930373 C.3        1 UNL1     0.0016
     19 C         -1.803301   -6.53367   -0.096854 C.3        1 UNL1     0.0026
     20 N         -1.892543   -5.949677   -1.428025 N.3        1 UNL1     -0.3018
     21 C         -3.074359   -5.117831   -1.664057 C.3        1 UNL1     0.0026
     22 C         -3.071255   -3.99601   -0.624152 C.3        1 UNL1     0.0016
     23 C         -1.583195   -6.896312   -2.481036 C.3        1 UNL1     0.0012
     24 C         -1.687561   -8.33742   -1.957519 C.3        1 UNL1     -0.0339
     25 C         -2.172601   -9.300238   -3.053774 C.3        1 UNL1     -0.0615
     26 C         -0.355472   -8.777981   -1.375947 C.3        1 UNL1     -0.0615
     27 C         -5.55229   -4.957381   6.222018 C.ar        1 UNL1     0.1347
     28 C         -5.223779   -3.799089   6.903553 C.ar        1 UNL1     0.0342
     29 C         -4.566421   -2.826386   6.120678 C.ar        1 UNL1     0.1435
     30 C         -4.230311   -3.033112   4.782203 C.ar        1 UNL1     0.0774
     31 O         -4.083086   -1.689931   6.668275 O.3        1 UNL1     -0.4436
     32 C         -3.112635   -1.215879   5.722561 C.3        1 UNL1     0.3143
     33 C         -3.514654   -1.834115   4.398786 C.2        1 UNL1     0.2504
     34 C         -5.354164   -3.580822   8.385262 C.3        1 UNL1     -0.0327
     35 O         -3.297736   0.19933   5.595394 O.2        1 UNL1     -0.4528
     36 C         0.120487   1.625433   4.764689 C.3        1 UNL1     0.0854
     37 C         1.081056   1.275349   3.563742 C.3        1 UNL1     0.0236
     38 C         1.532261   2.529198   2.671542 C.3        1 UNL1     0.1131
     39 C         0.440236   3.52496   2.107441 C.3        1 UNL1     0.0200
     40 C         -0.975122   2.940291   1.446108 C.3        1 UNL1     0.0661
     41 C         -1.093986   1.724664   0.268937 C.3        1 UNL1     0.0091
     42 C         -2.392376   0.458441   -0.007225 C.3        1 UNL1     0.0661
     43 C         -5.453358   -6.504505   4.256243 C.2        1 UNL1     0.2131
     44 O         -5.679423   -7.525298   4.880434 O.2        1 UNL1     -0.2851
     45 O         -6.2829   -5.94696   6.876527 O.3        1 UNL1     -0.5056
     46 O         -3.309792   -1.418897   3.280091 O.2        1 UNL1     -0.2836
     47 C         -5.008702   0.960298   -0.151431 C.3        1 UNL1     -0.0566
     48 O         -2.48984   0.711894   -1.465093 O.3        1 UNL1     -0.3909
     49 C         0.239857   1.020292   0.158407 C.3        1 UNL1     -0.0577
     50 O         -1.951098   2.739281   2.4485 O.3        1 UNL1     -0.3910
     51 O         -0.359402   2.95043   4.803657 O.3        1 UNL1     -0.3753
     52 C         0.741088   -0.114371   2.932832 C.3        1 UNL1     -0.0564
     53 O         2.698769   2.238323   1.773222 O.3        1 UNL1     -0.4608
     54 C         2.635298   2.080974   0.41339 C.2        1 UNL1     0.3042
     55 O         2.978817   1.09765   -0.241519 O.2        1 UNL1     -0.2512
     56 C         2.01754   3.250328   -0.299141 C.3        1 UNL1     0.0332
     57 C         0.335045   4.753119   3.126624 C.3        1 UNL1     -0.0567
     58 C         -1.752177   -1.808842   6.157391 C.3        1 UNL1     0.0210
     59 C         0.205617   3.762567   5.831788 C.3        1 UNL1     0.0372
     60 C         -1.064539   0.735498   4.902123 C.2        1 UNL1     -0.0208
     61 C         -2.345054   1.030185   5.130566 C.2        1 UNL1     0.0882
     62 H         -3.971884   -0.245683   1.282074 H        1 UNL1     0.0365
     63 H         -5.214464   -1.85494   1.473161 H        1 UNL1     0.0576
     64 H         -6.002687   -2.985686   -1.283086 H        1 UNL1     0.0615
     65 H         -6.579492   -3.917688   1.642068 H        1 UNL1     0.0622
     66 H         0.729849   1.456786   5.663734 H        1 UNL1     0.0645
     67 H         2.031882   1.000188   4.052389 H        1 UNL1     0.0362
     68 H         2.087433   3.103527   3.428809 H        1 UNL1     0.0741
     69 H         0.870589   4.085902   1.288571 H        1 UNL1     0.0359
     70 H         -1.318222   3.841455   0.902743 H        1 UNL1     0.0600
     71 H         -1.089203   2.343859   -0.649503 H        1 UNL1     0.0348
     72 H         -2.857882   1.240501   0.610029 H        1 UNL1     0.0602
     73 H         -0.741869   -0.275885   4.917511 H        1 UNL1     0.0628
     74 H         -2.766112   2.034595   5.074816 H        1 UNL1     0.1022
     75 H         -6.847822   -7.378776   -0.692142 H        1 UNL1     0.0279
     76 H         -8.520448   -7.064012   -0.454342 H        1 UNL1     0.0279
     77 H         -7.539857   -6.154542   -1.673605 H        1 UNL1     0.0279
     78 H         -5.679888   -7.445954   1.11785 H        1 UNL1     0.1553
     79 H         -4.399564   -6.252785   0.188687 H        1 UNL1     0.1484
     80 H         -0.969661   -4.735995   0.800732 H        1 UNL1     0.0317
     81 H         -1.744169   -5.826034   1.941729 H        1 UNL1     0.0317
     82 H         -2.614904   -7.256276   0.073593 H        1 UNL1     0.0428
     83 H         -0.873672   -7.0868   0.040579 H        1 UNL1     0.0428
     84 H         -3.077249   -4.627393   -2.64246 H        1 UNL1     0.0428
     85 H         -3.999206   -5.711094   -1.660264 H        1 UNL1     0.0428
     86 H         -3.8696   -3.335724   -0.908153 H        1 UNL1     0.0317
     87 H         -2.174349   -3.376158   -0.74432 H        1 UNL1     0.0317
     88 H         -2.317177   -6.763072   -3.286524 H        1 UNL1     0.0429
     89 H         -0.592911   -6.702685   -2.913033 H        1 UNL1     0.0429
     90 H         -2.401744   -8.366692   -1.126075 H        1 UNL1     0.0308
     91 H         -1.817508   -10.319341   -2.873661 H        1 UNL1     0.0233
     92 H         -3.263741   -9.305075   -3.108543 H        1 UNL1     0.0233
     93 H         -1.817682   -9.011176   -4.050423 H        1 UNL1     0.0233
     94 H         0.457717   -8.176694   -1.796675 H        1 UNL1     0.0233
     95 H         -0.355143   -8.634006   -0.291865 H        1 UNL1     0.0233
     96 H         -0.154297   -9.830932   -1.592257 H        1 UNL1     0.0233
     97 H         -6.20587   -4.110336   8.801725 H        1 UNL1     0.0280
     98 H         -4.476312   -3.943489   8.935812 H        1 UNL1     0.0280
     99 H         -5.48214   -2.505276   8.590002 H        1 UNL1     0.0280
     100 H         -6.749538   -6.531474   6.305375 H        1 UNL1     0.2922
     101 H         -5.155107   1.014687   -1.229978 H        1 UNL1     0.0236
     102 H         -4.632009   1.897055   0.257926 H        1 UNL1     0.0236
     103 H         -6.025269   0.860579   0.26431 H        1 UNL1     0.0236
     104 H         -3.43484   0.83715   -1.680167 H        1 UNL1     0.2098
     105 H         0.85459   1.350841   -0.675051 H        1 UNL1     0.0234
     106 H         0.825303   1.006904   1.077646 H        1 UNL1     0.0234
     107 H         0.0   -0.0   0.0 H        1 UNL1     0.0234
     108 H         -2.179744   1.789822   2.444533 H        1 UNL1     0.2098
     109 H         0.099984   -0.022505   2.044993 H        1 UNL1     0.0234
     110 H         1.630518   -0.702892   2.683228 H        1 UNL1     0.0234
     111 H         0.187671   -0.752817   3.634303 H        1 UNL1     0.0234
     112 H         1.612749   3.958823   0.429916 H        1 UNL1     0.0342
     113 H         2.721926   3.73975   -0.970073 H        1 UNL1     0.0342
     114 H         1.18158   2.878704   -0.907607 H        1 UNL1     0.0342
     115 H         0.675126   4.477767   4.134451 H        1 UNL1     0.0234
     116 H         0.900299   5.635064   2.818872 H        1 UNL1     0.0234
     117 H         -0.702872   5.067897   3.330547 H        1 UNL1     0.0234
     118 H         -1.684886   -2.890482   5.946362 H        1 UNL1     0.0309
     119 H         -0.896598   -1.300996   5.701017 H        1 UNL1     0.0309
     120 H         -1.59593   -1.752582   7.240225 H        1 UNL1     0.0309
     121 H         -0.356891   3.575643   6.746119 H        1 UNL1     0.0524
     122 H         1.259874   3.509402   6.033 H        1 UNL1     0.0524
     123 H         0.140807   4.812292   5.559812 H        1 UNL1     0.0524
@<TRIPOS>BOND
     1     1     2    1
     2     1    42    1
     3     2     3    2
     4     3     4    1
     5     4     5    2
     6     5     7    1
     7     6    75    1
     8     6    76    1
     9     6    77    1
    10     7     9   am
    11     9    10    1
    12    10    11    2
    13    10    43    1
    14    11    14    1
    15    11    15    1
    16    12    13   ar
    17    12    27   ar
    18    12    43    1
    19    13    14    1
    20    13    30   ar
    21    14    17    2
    22    15    16    1
    23    16    17    1
    24    16    18    1
    25    16    22    1
    26    18    19    1
    27    19    20    1
    28    20    21    1
    29    21    22    1
    30    23    24    1
    31    23    88    1
    32    23    89    1
    33    24    25    1
    34    24    26    1
    35    24    90    1
    36    25    91    1
    37    25    92    1
    38    25    93    1
    39    26    94    1
    40    26    95    1
    41    26    96    1
    42    27    28   ar
    43    28    29   ar
    44    29    30   ar
    45    29    31    1
    46    30    33    1
    47    31    32    1
    48    32    33    1
    49    32    35    1
    50    34    97    1
    51    34    98    1
    52    34    99    1
    53    35    61    1
    54    36    37    1
    55    36    60    1
    56    37    38    1
    57    38    39    1
    58    39    40    1
    59    40    41    1
    60    41    42    1
    61    45   100    1
    62    47   101    1
    63    47   102    1
    64    47   103    1
    65    48   104    1
    66    49   105    1
    67    49   106    1
    68    49   107    1
    69    50   108    1
    70    51    59    1
    71    52   109    1
    72    52   110    1
    73    52   111    1
    74    53    54    1
    75    54    55    2
    76    54    56    1
    77    56   112    1
    78    56   113    1
    79    56   114    1
    80    57   115    1
    81    57   116    1
    82    57   117    1
    83    58   118    1
    84    58   119    1
    85    58   120    1
    86    59   121    1
    87    59   122    1
    88    59   123    1
    89    60    61    2
    90     1    47    1
    91     1    62    1
    92     2    63    1
    93     3    64    1
    94     4    65    1
    95     5     6    1
    96     7     8    2
    97     9    78    1
    98    15    79    1
    99    18    80    1
   100    18    81    1
   101    19    82    1
   102    19    83    1
   103    20    23    1
   104    21    84    1
   105    21    85    1
   106    22    86    1
   107    22    87    1
   108    27    45    1
   109    28    34    1
   110    32    58    1
   111    33    46    2
   112    36    51    1
   113    36    66    1
   114    37    52    1
   115    37    67    1
   116    38    53    1
   117    38    68    1
   118    42    48    1
   119    42    72    1
   120    43    44    2
   121    60    73    1
   122    61    74    1
   123    39    69    1
   124    39    57    1
   125    40    70    1
   126    40    50    1
   127    41    71    1
   128    41    49    1
