@<TRIPOS>MOLECULE
*****
 123 128 0 0 0
SMALL
GASTEIGER

@<TRIPOS>ATOM
     1 C         -4.566756   0.791143   -1.745836 C.3        1 UNL1     0.0009
     2 C         -5.468477   1.808558   -3.006312 C.2        1 UNL1     -0.0787
     3 C         -6.079063   3.058233   -3.408237 C.2        1 UNL1     -0.0649
     4 C         -6.723265   3.462529   -4.92082 C.2        1 UNL1     -0.0542
     5 C         -7.097007   4.528085   -5.77638 C.2        1 UNL1     0.0115
     6 C         -7.320368   6.063812   -5.846931 C.3        1 UNL1     -0.0348
     7 C         -7.284726   4.236604   -7.343795 C.2        1 UNL1     0.2441
     8 O         -8.381646   4.110616   -7.8705 O.2        1 UNL1     -0.2702
     9 N         -6.120667   4.394875   -8.11585 N.am        1 UNL1     -0.2772
     10 C         -5.403724   3.220927   -8.149893 C.2        1 UNL1     0.1049
     11 C         -4.610236   2.993419   -7.118952 C.2        1 UNL1     0.0801
     12 C         -5.6384   0.76458   -8.560529 C.ar        1 UNL1     0.0753
     13 C         -4.950824   0.571058   -7.320208 C.ar        1 UNL1     0.0305
     14 C         -4.299227   1.679183   -6.625563 C.2        1 UNL1     0.0924
     15 N         -4.221501   3.816388   -6.129945 N.pl3        1 UNL1     -0.3170
     16 C         -3.219692   3.131661   -5.356783 C.3        1 UNL1     0.1275
     17 N         -3.542352   1.667788   -5.531974 N.2        1 UNL1     -0.2557
     18 C         -1.880283   3.356224   -6.051951 C.3        1 UNL1     0.0016
     19 C         -1.65039   4.8525   -6.193001 C.3        1 UNL1     0.0026
     20 N         -1.659793   5.454269   -4.866798 N.3        1 UNL1     -0.3018
     21 C         -2.885539   5.238998   -4.095064 C.3        1 UNL1     0.0026
     22 C         -3.094524   3.729555   -3.961647 C.3        1 UNL1     0.0016
     23 C         -1.156754   6.813518   -4.860707 C.3        1 UNL1     0.0012
     24 C         -2.287159   7.804761   -4.542305 C.3        1 UNL1     -0.0339
     25 C         -2.59365   7.843302   -3.036106 C.3        1 UNL1     -0.0615
     26 C         -1.937525   9.182652   -5.07705 C.3        1 UNL1     -0.0615
     27 C         -6.152235   -0.313853   -9.276821 C.ar        1 UNL1     0.1347
     28 C         -6.006203   -1.629599   -8.874904 C.ar        1 UNL1     0.0342
     29 C         -5.368735   -1.79244   -7.626592 C.ar        1 UNL1     0.1435
     30 C         -4.880828   -0.718969   -6.880383 C.ar        1 UNL1     0.0774
     31 O         -5.053755   -3.016837   -7.150519 O.3        1 UNL1     -0.4436
     32 C         -4.04225   -2.772254   -6.161626 C.3        1 UNL1     0.3143
     33 C         -4.247588   -1.333588   -5.732335 C.2        1 UNL1     0.2504
     34 C         -6.305965   -2.84449   -9.708139 C.3        1 UNL1     -0.0327
     35 O         -4.347545   -3.593568   -5.027831 O.2        1 UNL1     -0.4528
     36 C         -1.01436   -4.406112   -3.403721 C.3        1 UNL1     0.0854
     37 C         0.0917   -3.425113   -2.854362 C.3        1 UNL1     0.0236
     38 C         0.509281   -3.665862   -1.324849 C.3        1 UNL1     0.1131
     39 C         -0.609987   -3.761638   -0.211145 C.3        1 UNL1     0.0200
     40 C         -1.889024   -2.690911   -0.204465 C.3        1 UNL1     0.0661
     41 C         -1.771857   -1.002262   -0.315585 C.3        1 UNL1     0.0091
     42 C         -2.90907   0.222288   -1.072306 C.3        1 UNL1     0.0661
     43 C         -5.708045   2.143861   -9.103661 C.2        1 UNL1     0.2131
     44 O         -5.897773   2.395259   -10.279901 O.2        1 UNL1     -0.2851
     45 O         -6.847653   -0.035367   -10.451673 O.3        1 UNL1     -0.5056
     46 O         -3.971145   -0.81654   -4.673045 O.2        1 UNL1     -0.2836
     47 C         -5.533252   0.358153   -0.610765 C.3        1 UNL1     -0.0566
     48 O         -2.882305   1.13787   0.093932 O.3        1 UNL1     -0.3909
     49 C         -0.372657   -0.63835   -0.759774 C.3        1 UNL1     -0.0577
     50 O         -2.93775   -3.157778   -1.029045 O.3        1 UNL1     -0.3910
     51 O         -1.619789   -5.248515   -2.44913 O.3        1 UNL1     -0.3753
     52 C         -0.048745   -1.991164   -3.461828 C.3        1 UNL1     -0.0564
     53 O         1.783036   -2.975023   -0.934185 O.3        1 UNL1     -0.4608
     54 C         2.728285   -3.475131   -0.077257 C.2        1 UNL1     0.3042
     55 O         2.536846   -4.035493   1.001252 O.2        1 UNL1     -0.2512
     56 C         4.134118   -3.34557   -0.590641 C.3        1 UNL1     0.0332
     57 C         -0.934253   -5.311483   0.0147 C.3        1 UNL1     -0.0567
     58 C         -2.682462   -2.886509   -6.889259 C.3        1 UNL1     0.0210
     59 C         -3.042923   -5.316298   -2.526346 C.3        1 UNL1     0.0372
     60 C         -2.116991   -3.751042   -4.158868 C.2        1 UNL1     -0.0208
     61 C         -3.436266   -3.936708   -4.097341 C.2        1 UNL1     0.0882
     62 H         -4.536548   -0.037084   -2.464055 H        1 UNL1     0.0365
     63 H         -5.633058   1.064574   -3.788533 H        1 UNL1     0.0576
     64 H         -6.027154   3.949267   -2.778576 H        1 UNL1     0.0615
     65 H         -6.805374   2.500871   -5.434585 H        1 UNL1     0.0622
     66 H         -0.485759   -5.038838   -4.130553 H        1 UNL1     0.0645
     67 H         1.010105   -3.733154   -3.383702 H        1 UNL1     0.0362
     68 H         0.92776   -4.680661   -1.40597 H        1 UNL1     0.0741
     69 H         -0.154447   -3.592898   0.755509 H        1 UNL1     0.0359
     70 H         -2.259715   -2.843093   0.827276 H        1 UNL1     0.0600
     71 H         -1.733239   -0.740001   0.759908 H        1 UNL1     0.0348
     72 H         -3.507002   -0.685947   -0.908292 H        1 UNL1     0.0602
     73 H         -1.702636   -3.135106   -4.917934 H        1 UNL1     0.0628
     74 H         -3.943309   -4.504706   -3.316621 H        1 UNL1     0.1022
     75 H         -7.304117   6.509753   -4.823258 H        1 UNL1     0.0279
     76 H         -6.558943   6.641445   -6.366201 H        1 UNL1     0.0279
     77 H         -8.332602   6.331294   -6.183883 H        1 UNL1     0.0279
     78 H         -5.525287   5.105334   -7.695316 H        1 UNL1     0.1553
     79 H         -4.27711   4.816865   -6.183672 H        1 UNL1     0.1484
     80 H         -1.086903   2.883075   -5.460813 H        1 UNL1     0.0317
     81 H         -1.865421   2.877203   -7.036821 H        1 UNL1     0.0317
     82 H         -2.402504   5.320264   -6.845255 H        1 UNL1     0.0428
     83 H         -0.690972   4.989996   -6.692663 H        1 UNL1     0.0428
     84 H         -2.836188   5.631913   -3.074773 H        1 UNL1     0.0428
     85 H         -3.745269   5.758915   -4.539889 H        1 UNL1     0.0428
     86 H         -3.91932   3.610235   -3.283811 H        1 UNL1     0.0317
     87 H         -2.25323   3.281301   -3.419071 H        1 UNL1     0.0317
     88 H         -0.392474   6.891328   -4.076413 H        1 UNL1     0.0429
     89 H         -0.668216   7.062174   -5.81164 H        1 UNL1     0.0429
     90 H         -3.194732   7.497941   -5.075582 H        1 UNL1     0.0308
     91 H         -2.530146   6.845542   -2.591646 H        1 UNL1     0.0233
     92 H         -1.901633   8.51139   -2.518052 H        1 UNL1     0.0233
     93 H         -3.600804   8.222337   -2.82443 H        1 UNL1     0.0233
     94 H         -1.152355   9.637782   -4.463698 H        1 UNL1     0.0233
     95 H         -1.561289   9.101762   -6.100703 H        1 UNL1     0.0233
     96 H         -2.807562   9.845207   -5.072072 H        1 UNL1     0.0233
     97 H         -5.400857   -3.335632   -10.052799 H        1 UNL1     0.0280
     98 H         -6.864746   -3.604185   -9.146103 H        1 UNL1     0.0280
     99 H         -6.896865   -2.549955   -10.590852 H        1 UNL1     0.0280
     100 H         -6.313159   0.286914   -11.155997 H        1 UNL1     0.2922
     101 H         -4.978983   -0.177291   0.159781 H        1 UNL1     0.0236
     102 H         -6.388611   -0.212693   -0.970598 H        1 UNL1     0.0236
     103 H         -5.97301   1.224177   -0.088455 H        1 UNL1     0.0236
     104 H         -2.107473   0.898446   0.639167 H        1 UNL1     0.2098
     105 H         0.305266   -1.483791   -0.846148 H        1 UNL1     0.0234
     106 H         -0.325666   -0.023122   -1.658225 H        1 UNL1     0.0234
     107 H         0.0   0.0   0.0 H        1 UNL1     0.0234
     108 H         -2.527833   -3.588313   -1.803883 H        1 UNL1     0.2098
     109 H         0.855016   -1.384672   -3.309856 H        1 UNL1     0.0234
     110 H         -0.310853   -1.998041   -4.525311 H        1 UNL1     0.0234
     111 H         -0.866171   -1.429941   -2.989821 H        1 UNL1     0.0234
     112 H         4.371985   -4.192111   -1.241897 H        1 UNL1     0.0342
     113 H         4.296856   -2.399419   -1.104604 H        1 UNL1     0.0342
     114 H         4.817724   -3.37938   0.268838 H        1 UNL1     0.0342
     115 H         -0.538391   -5.676197   0.972544 H        1 UNL1     0.0234
     116 H         -1.999138   -5.550863   -0.013 H        1 UNL1     0.0234
     117 H         -0.416858   -5.977454   -0.697147 H        1 UNL1     0.0234
     118 H         -2.182565   -3.849518   -6.685001 H        1 UNL1     0.0309
     119 H         -2.761493   -2.746578   -7.972022 H        1 UNL1     0.0309
     120 H         -1.955243   -2.145373   -6.540006 H        1 UNL1     0.0309
     121 H         -3.446542   -4.657262   -1.758154 H        1 UNL1     0.0524
     122 H         -3.42628   -4.966015   -3.499164 H        1 UNL1     0.0524
     123 H         -3.380184   -6.335582   -2.360787 H        1 UNL1     0.0524
@<TRIPOS>BOND
     1     1     2    1
     2     1    42    1
     3     2     3    2
     4     3     4    1
     5     4     5    2
     6     5     7    1
     7     6    75    1
     8     6    76    1
     9     6    77    1
    10     7     9   am
    11     9    10    1
    12    10    11    2
    13    10    43    1
    14    11    14    1
    15    11    15    1
    16    12    13   ar
    17    12    27   ar
    18    12    43    1
    19    13    14    1
    20    13    30   ar
    21    14    17    2
    22    15    16    1
    23    16    17    1
    24    16    18    1
    25    16    22    1
    26    18    19    1
    27    19    20    1
    28    20    21    1
    29    21    22    1
    30    23    24    1
    31    23    88    1
    32    23    89    1
    33    24    25    1
    34    24    26    1
    35    24    90    1
    36    25    91    1
    37    25    92    1
    38    25    93    1
    39    26    94    1
    40    26    95    1
    41    26    96    1
    42    27    28   ar
    43    28    29   ar
    44    29    30   ar
    45    29    31    1
    46    30    33    1
    47    31    32    1
    48    32    33    1
    49    32    35    1
    50    34    97    1
    51    34    98    1
    52    34    99    1
    53    35    61    1
    54    36    37    1
    55    36    60    1
    56    37    38    1
    57    38    39    1
    58    39    40    1
    59    40    41    1
    60    41    42    1
    61    45   100    1
    62    47   101    1
    63    47   102    1
    64    47   103    1
    65    48   104    1
    66    49   105    1
    67    49   106    1
    68    49   107    1
    69    50   108    1
    70    51    59    1
    71    52   109    1
    72    52   110    1
    73    52   111    1
    74    53    54    1
    75    54    55    2
    76    54    56    1
    77    56   112    1
    78    56   113    1
    79    56   114    1
    80    57   115    1
    81    57   116    1
    82    57   117    1
    83    58   118    1
    84    58   119    1
    85    58   120    1
    86    59   121    1
    87    59   122    1
    88    59   123    1
    89    60    61    2
    90     1    47    1
    91     1    62    1
    92     2    63    1
    93     3    64    1
    94     4    65    1
    95     5     6    1
    96     7     8    2
    97     9    78    1
    98    15    79    1
    99    18    80    1
   100    18    81    1
   101    19    82    1
   102    19    83    1
   103    20    23    1
   104    21    84    1
   105    21    85    1
   106    22    86    1
   107    22    87    1
   108    27    45    1
   109    28    34    1
   110    32    58    1
   111    33    46    2
   112    36    51    1
   113    36    66    1
   114    37    52    1
   115    37    67    1
   116    38    53    1
   117    38    68    1
   118    42    48    1
   119    42    72    1
   120    43    44    2
   121    60    73    1
   122    61    74    1
   123    39    69    1
   124    39    57    1
   125    40    70    1
   126    40    50    1
   127    41    71    1
   128    41    49    1
