@<TRIPOS>MOLECULE
*****
 123 128 0 0 0
SMALL
GASTEIGER

@<TRIPOS>ATOM
     1 C         1.310907   -3.943893   -0.483515 C.3        1 UNL1     0.0009
     2 C         1.884917   -4.754115   -2.049111 C.2        1 UNL1     -0.0787
     3 C         1.639639   -5.638813   -3.168572 C.2        1 UNL1     -0.0649
     4 C         2.635608   -5.923205   -4.507798 C.2        1 UNL1     -0.0542
     5 C         2.680335   -6.400459   -5.840955 C.2        1 UNL1     0.0115
     6 C         1.868582   -7.143147   -6.937675 C.3        1 UNL1     -0.0348
     7 C         3.933738   -6.009259   -6.764498 C.2        1 UNL1     0.2441
     8 O         4.852099   -6.781749   -7.001977 O.2        1 UNL1     -0.2702
     9 N         3.779532   -4.816499   -7.4923 N.am        1 UNL1     -0.2772
     10 C         4.201883   -3.740489   -6.74588 C.2        1 UNL1     0.1049
     11 C         3.328596   -3.250921   -5.884536 C.2        1 UNL1     0.0801
     12 C         6.103573   -2.925804   -5.339751 C.ar        1 UNL1     0.0753
     13 C         5.126719   -2.602508   -4.344843 C.ar        1 UNL1     0.0305
     14 C         3.695778   -2.633635   -4.638939 C.2        1 UNL1     0.0924
     15 N         2.012979   -3.494012   -5.755748 N.pl3        1 UNL1     -0.3170
     16 C         1.490615   -2.577891   -4.776916 C.3        1 UNL1     0.1275
     17 N         2.665092   -2.273993   -3.879156 N.2        1 UNL1     -0.2557
     18 C         1.165352   -1.276537   -5.503817 C.3        1 UNL1     0.0016
     19 C         0.21223   -1.583633   -6.647863 C.3        1 UNL1     0.0026
     20 N         -0.992163   -2.19416   -6.102224 N.3        1 UNL1     -0.3018
     21 C         -0.773516   -3.420395   -5.332217 C.3        1 UNL1     0.0026
     22 C         0.182926   -3.08777   -4.185713 C.3        1 UNL1     0.0016
     23 C         -2.078772   -2.251485   -7.059636 C.3        1 UNL1     0.0012
     24 C         -3.352993   -1.630399   -6.466028 C.3        1 UNL1     -0.0339
     25 C         -3.152161   -0.142139   -6.136172 C.3        1 UNL1     -0.0615
     26 C         -4.523595   -1.840581   -7.410641 C.3        1 UNL1     -0.0615
     27 C         7.465636   -2.777566   -5.088893 C.ar        1 UNL1     0.1347
     28 C         7.967737   -2.279366   -3.899885 C.ar        1 UNL1     0.0342
     29 C         6.98994   -2.013973   -2.917722 C.ar        1 UNL1     0.1435
     30 C         5.624223   -2.1919   -3.142177 C.ar        1 UNL1     0.0774
     31 O         7.310012   -1.421281   -1.746707 O.3        1 UNL1     -0.4436
     32 C         6.066966   -0.900652   -1.252082 C.3        1 UNL1     0.3143
     33 C         4.99366   -1.735135   -1.921308 C.2        1 UNL1     0.2504
     34 C         9.389181   -1.858008   -3.650777 C.3        1 UNL1     -0.0327
     35 O         6.009952   -1.193685   0.149394 O.2        1 UNL1     -0.4528
     36 C         3.951512   1.586987   1.711052 C.3        1 UNL1     0.0854
     37 C         2.480388   2.046267   1.375824 C.3        1 UNL1     0.0236
     38 C         1.47673   2.065176   2.626447 C.3        1 UNL1     0.1131
     39 C         1.356584   0.790955   3.556068 C.3        1 UNL1     0.0200
     40 C         1.276702   -0.736282   2.890033 C.3        1 UNL1     0.0661
     41 C         0.236872   -1.222483   1.641044 C.3        1 UNL1     0.0091
     42 C         0.474397   -2.461814   0.309488 C.3        1 UNL1     0.0661
     43 C         5.614995   -3.339311   -6.678618 C.2        1 UNL1     0.2131
     44 O         6.28447   -3.262039   -7.692802 O.2        1 UNL1     -0.2851
     45 O         8.351927   -3.15787   -6.094525 O.3        1 UNL1     -0.5056
     46 O         3.877182   -1.985073   -1.52525 O.2        1 UNL1     -0.2836
     47 C         1.317193   -4.964992   0.6858 C.3        1 UNL1     -0.0566
     48 O         -0.842439   -3.10998   0.521486 O.3        1 UNL1     -0.3909
     49 C         -0.360798   0.008404   0.996681 C.3        1 UNL1     -0.0577
     50 O         2.572752   -1.255152   2.669236 O.3        1 UNL1     -0.3910
     51 O         4.159445   1.087733   3.012951 O.3        1 UNL1     -0.3753
     52 C         2.030891   1.568487   -0.043552 C.3        1 UNL1     -0.0564
     53 O         0.208769   2.825135   2.367482 O.3        1 UNL1     -0.4608
     54 C         -0.067058   4.089119   2.819361 C.2        1 UNL1     0.3042
     55 O         0.506852   4.70275   3.718205 O.2        1 UNL1     -0.2512
     56 C         -1.166249   4.773546   2.057749 C.3        1 UNL1     0.0332
     57 C         2.333725   1.009976   4.803225 C.3        1 UNL1     -0.0567
     58 C         5.964361   0.552786   -1.77027 C.3        1 UNL1     0.0210
     59 C         3.826517   -0.288717   3.187332 C.3        1 UNL1     0.0372
     60 C         4.527875   0.587452   0.770894 C.2        1 UNL1     -0.0208
     61 C         5.217346   -0.528544   1.011571 C.2        1 UNL1     0.0882
     62 H         2.265416   -3.4061   -0.434489 H        1 UNL1     0.0365
     63 H         2.917341   -4.401228   -2.09429 H        1 UNL1     0.0576
     64 H         0.66339   -6.101691   -3.329159 H        1 UNL1     0.0615
     65 H         3.597233   -5.494298   -4.213182 H        1 UNL1     0.0622
     66 H         4.55803   2.496025   1.593438 H        1 UNL1     0.0645
     67 H         2.579156   3.123802   1.157366 H        1 UNL1     0.0362
     68 H         1.967661   2.832159   3.244707 H        1 UNL1     0.0741
     69 H         0.432838   0.854226   4.115621 H        1 UNL1     0.0359
     70 H         0.895965   -1.304211   3.760411 H        1 UNL1     0.0600
     71 H         -0.620223   -1.593586   2.236551 H        1 UNL1     0.0348
     72 H         1.216385   -2.703283   1.084383 H        1 UNL1     0.0602
     73 H         4.427343   0.944989   -0.223747 H        1 UNL1     0.0628
     74 H         5.317327   -0.991913   1.993677 H        1 UNL1     0.1022
     75 H         0.891833   -7.4985   -6.529363 H        1 UNL1     0.0279
     76 H         1.561877   -6.552382   -7.797907 H        1 UNL1     0.0279
     77 H         2.334263   -8.091861   -7.242278 H        1 UNL1     0.0279
     78 H         2.795288   -4.672254   -7.708018 H        1 UNL1     0.1553
     79 H         1.447313   -3.896115   -6.480502 H        1 UNL1     0.1484
     80 H         0.721765   -0.570389   -4.791531 H        1 UNL1     0.0317
     81 H         2.076188   -0.804346   -5.887309 H        1 UNL1     0.0317
     82 H         0.678411   -2.233762   -7.402793 H        1 UNL1     0.0428
     83 H         -0.005083   -0.642381   -7.1537 H        1 UNL1     0.0428
     84 H         -1.682576   -3.814264   -4.867149 H        1 UNL1     0.0428
     85 H         -0.42024   -4.244432   -5.967414 H        1 UNL1     0.0428
     86 H         0.214549   -3.967803   -3.570464 H        1 UNL1     0.0317
     87 H         -0.267957   -2.334477   -3.528179 H        1 UNL1     0.0317
     88 H         -1.785913   -1.670346   -7.943833 H        1 UNL1     0.0429
     89 H         -2.259607   -3.280383   -7.396449 H        1 UNL1     0.0429
     90 H         -3.614391   -2.160551   -5.542544 H        1 UNL1     0.0308
     91 H         -2.090373   0.104724   -6.042528 H        1 UNL1     0.0233
     92 H         -3.600279   0.488412   -6.907667 H        1 UNL1     0.0233
     93 H         -3.629908   0.1444   -5.191456 H        1 UNL1     0.0233
     94 H         -4.844187   -0.882473   -7.833825 H        1 UNL1     0.0233
     95 H         -4.224494   -2.491043   -8.237322 H        1 UNL1     0.0233
     96 H         -5.375572   -2.2933   -6.895715 H        1 UNL1     0.0233
     97 H         9.632415   -1.850477   -2.592471 H        1 UNL1     0.0280
     98 H         10.111016   -2.539073   -4.120202 H        1 UNL1     0.0280
     99 H         9.54831   -0.842593   -4.049154 H        1 UNL1     0.0280
     100 H         8.614916   -4.060926   -6.063708 H        1 UNL1     0.2922
     101 H         1.691293   -4.485859   1.590309 H        1 UNL1     0.0236
     102 H         1.86077   -5.880018   0.452917 H        1 UNL1     0.0236
     103 H         0.300008   -5.301255   0.947439 H        1 UNL1     0.0236
     104 H         -1.444021   -2.438992   0.899434 H        1 UNL1     0.2098
     105 H         -1.447187   0.012082   0.957231 H        1 UNL1     0.0234
     106 H         0.005972   0.954417   1.39476 H        1 UNL1     0.0234
     107 H         0.0   0.0   0.0 H        1 UNL1     0.0234
     108 H         3.210516   -0.561018   2.924587 H        1 UNL1     0.2098
     109 H         2.749545   0.869803   -0.494206 H        1 UNL1     0.0234
     110 H         1.031174   1.120983   -0.050457 H        1 UNL1     0.0234
     111 H         1.951575   2.408094   -0.746913 H        1 UNL1     0.0234
     112 H         -1.517133   4.12618   1.24834 H        1 UNL1     0.0342
     113 H         -1.989768   5.070551   2.705397 H        1 UNL1     0.0342
     114 H         -0.753465   5.685448   1.604749 H        1 UNL1     0.0342
     115 H         2.245159   0.198682   5.538852 H        1 UNL1     0.0234
     116 H         3.387974   1.093547   4.531888 H        1 UNL1     0.0234
     117 H         2.070263   1.886477   5.41989 H        1 UNL1     0.0234
     118 H         6.376946   0.659929   -2.78875 H        1 UNL1     0.0309
     119 H         4.941799   0.943096   -1.755198 H        1 UNL1     0.0309
     120 H         6.564963   1.253062   -1.17951 H        1 UNL1     0.0309
     121 H         2.764372   -0.343538   3.424397 H        1 UNL1     0.0524
     122 H         3.992958   -0.878781   2.27073 H        1 UNL1     0.0524
     123 H         4.413357   -0.718015   3.994435 H        1 UNL1     0.0524
@<TRIPOS>BOND
     1     1     2    1
     2     1    42    1
     3     2     3    2
     4     3     4    1
     5     4     5    2
     6     5     7    1
     7     6    75    1
     8     6    76    1
     9     6    77    1
    10     7     9   am
    11     9    10    1
    12    10    11    2
    13    10    43    1
    14    11    14    1
    15    11    15    1
    16    12    13   ar
    17    12    27   ar
    18    12    43    1
    19    13    14    1
    20    13    30   ar
    21    14    17    2
    22    15    16    1
    23    16    17    1
    24    16    18    1
    25    16    22    1
    26    18    19    1
    27    19    20    1
    28    20    21    1
    29    21    22    1
    30    23    24    1
    31    23    88    1
    32    23    89    1
    33    24    25    1
    34    24    26    1
    35    24    90    1
    36    25    91    1
    37    25    92    1
    38    25    93    1
    39    26    94    1
    40    26    95    1
    41    26    96    1
    42    27    28   ar
    43    28    29   ar
    44    29    30   ar
    45    29    31    1
    46    30    33    1
    47    31    32    1
    48    32    33    1
    49    32    35    1
    50    34    97    1
    51    34    98    1
    52    34    99    1
    53    35    61    1
    54    36    37    1
    55    36    60    1
    56    37    38    1
    57    38    39    1
    58    39    40    1
    59    40    41    1
    60    41    42    1
    61    45   100    1
    62    47   101    1
    63    47   102    1
    64    47   103    1
    65    48   104    1
    66    49   105    1
    67    49   106    1
    68    49   107    1
    69    50   108    1
    70    51    59    1
    71    52   109    1
    72    52   110    1
    73    52   111    1
    74    53    54    1
    75    54    55    2
    76    54    56    1
    77    56   112    1
    78    56   113    1
    79    56   114    1
    80    57   115    1
    81    57   116    1
    82    57   117    1
    83    58   118    1
    84    58   119    1
    85    58   120    1
    86    59   121    1
    87    59   122    1
    88    59   123    1
    89    60    61    2
    90     1    47    1
    91     1    62    1
    92     2    63    1
    93     3    64    1
    94     4    65    1
    95     5     6    1
    96     7     8    2
    97     9    78    1
    98    15    79    1
    99    18    80    1
   100    18    81    1
   101    19    82    1
   102    19    83    1
   103    20    23    1
   104    21    84    1
   105    21    85    1
   106    22    86    1
   107    22    87    1
   108    27    45    1
   109    28    34    1
   110    32    58    1
   111    33    46    2
   112    36    51    1
   113    36    66    1
   114    37    52    1
   115    37    67    1
   116    38    53    1
   117    38    68    1
   118    42    48    1
   119    42    72    1
   120    43    44    2
   121    60    73    1
   122    61    74    1
   123    39    69    1
   124    39    57    1
   125    40    70    1
   126    40    50    1
   127    41    71    1
   128    41    49    1
