@<TRIPOS>MOLECULE
*****
 123 128 0 0 0
SMALL
GASTEIGER

@<TRIPOS>ATOM
     1 C         5.07303   2.026018   -0.398605 C.3        1 UNL1     0.0009
     2 C         6.626226   2.469643   0.511239 C.2        1 UNL1     -0.0787
     3 C         7.484542   3.46352   1.120786 C.2        1 UNL1     -0.0649
     4 C         8.902327   3.209257   2.010501 C.2        1 UNL1     -0.0542
     5 C         9.799999   3.772947   2.950457 C.2        1 UNL1     0.0115
     6 C         10.184691   5.08306   3.691361 C.3        1 UNL1     -0.0348
     7 C         10.799767   2.802928   3.748276 C.2        1 UNL1     0.2441
     8 O         11.983148   2.685401   3.461356 O.2        1 UNL1     -0.2702
     9 N         10.29043   2.297502   4.957107 N.am        1 UNL1     -0.2772
     10 C         9.596259   1.130392   4.735066 C.2        1 UNL1     0.1049
     11 C         8.343464   1.264639   4.339207 C.2        1 UNL1     0.0801
     12 C         9.760415   -1.088201   3.591287 C.ar        1 UNL1     0.0753
     13 C         8.48129   -0.799147   3.017795 C.ar        1 UNL1     0.0305
     14 C         7.673652   0.328314   3.477798 C.2        1 UNL1     0.0924
     15 N         7.557528   2.354689   4.314248 N.pl3        1 UNL1     -0.3170
     16 C         6.229358   1.930725   3.958616 C.3        1 UNL1     0.1275
     17 N         6.438691   0.683578   3.134889 N.2        1 UNL1     -0.2557
     18 C         5.539791   1.479414   5.242562 C.3        1 UNL1     0.0016
     19 C         5.586917   2.620057   6.246705 C.3        1 UNL1     0.0026
     20 N         4.91674   3.777915   5.671158 N.3        1 UNL1     -0.3018
     21 C         5.471   4.248986   4.40023 C.3        1 UNL1     0.0026
     22 C         5.409557   3.088818   3.405177 C.3        1 UNL1     0.0016
     23 C         4.642542   4.813696   6.647179 C.3        1 UNL1     0.0012
     24 C         3.542104   4.360042   7.619286 C.3        1 UNL1     -0.0339
     25 C         4.138152   3.785213   8.9148 C.3        1 UNL1     -0.0615
     26 C         2.591697   5.510156   7.903435 C.3        1 UNL1     -0.0615
     27 C         10.46996   -2.232145   3.233435 C.ar        1 UNL1     0.1347
     28 C         9.986812   -3.177438   2.346282 C.ar        1 UNL1     0.0342
     29 C         8.747665   -2.847367   1.757445 C.ar        1 UNL1     0.1435
     30 C         8.042204   -1.687157   2.079095 C.ar        1 UNL1     0.0774
     31 O         8.093714   -3.717324   0.957114 O.3        1 UNL1     -0.4436
     32 C         6.73475   -3.25465   0.952447 C.3        1 UNL1     0.3143
     33 C         6.815048   -1.785973   1.316803 C.2        1 UNL1     0.2504
     34 C         10.571279   -4.541642   2.106603 C.3        1 UNL1     -0.0327
     35 O         6.265801   -3.323985   -0.399785 O.2        1 UNL1     -0.4528
     36 C         2.530947   -3.962901   -0.174528 C.3        1 UNL1     0.0854
     37 C         1.417324   -3.115654   0.553166 C.3        1 UNL1     0.0236
     38 C         0.193684   -2.664387   -0.380004 C.3        1 UNL1     0.1131
     39 C         0.481805   -1.949272   -1.76126 C.3        1 UNL1     0.0200
     40 C         1.642757   -0.756374   -1.869075 C.3        1 UNL1     0.0661
     41 C         1.786111   0.58636   -0.842369 C.3        1 UNL1     0.0091
     42 C         3.273249   1.503779   -0.28365 C.3        1 UNL1     0.0661
     43 C         10.266339   -0.175554   4.646454 C.2        1 UNL1     0.2131
     44 O         11.106238   -0.496242   5.467713 O.2        1 UNL1     -0.2851
     45 O         11.727883   -2.415807   3.803817 O.3        1 UNL1     -0.5056
     46 O         6.050017   -0.894211   1.02467 O.2        1 UNL1     -0.2836
     47 C         5.188079   2.433049   -1.892282 C.3        1 UNL1     -0.0566
     48 O         2.695736   2.839811   -0.567574 O.3        1 UNL1     -0.3909
     49 C         0.92175   0.361815   0.378267 C.3        1 UNL1     -0.0577
     50 O         2.917121   -1.317709   -2.111195 O.3        1 UNL1     -0.3910
     51 O         2.406808   -4.070272   -1.574704 O.3        1 UNL1     -0.3753
     52 C         2.02319   -2.172494   1.643269 C.3        1 UNL1     -0.0564
     53 O         -0.999702   -2.176963   0.388484 O.3        1 UNL1     -0.4608
     54 C         -2.007023   -1.397607   -0.117321 C.2        1 UNL1     0.3042
     55 O         -2.259452   -0.227079   0.16549 O.2        1 UNL1     -0.2512
     56 C         -2.827931   -2.085029   -1.171016 C.3        1 UNL1     0.0332
     57 C         0.459279   -3.072419   -2.89977 C.3        1 UNL1     -0.0567
     58 C         6.010925   -4.012003   2.089999 C.3        1 UNL1     0.0210
     59 C         2.990019   -5.243402   -2.139945 C.3        1 UNL1     0.0372
     60 C         3.928859   -3.532495   0.100706 C.2        1 UNL1     -0.0208
     61 C         4.960097   -3.362767   -0.727838 C.2        1 UNL1     0.0882
     62 H         5.362475   0.96991   -0.338857 H        1 UNL1     0.0365
     63 H         7.120524   1.496972   0.556518 H        1 UNL1     0.0576
     64 H         7.183655   4.51083   1.196398 H        1 UNL1     0.0615
     65 H         9.155853   2.165869   1.804225 H        1 UNL1     0.0622
     66 H         2.435822   -4.970307   0.254576 H        1 UNL1     0.0645
     67 H         0.925345   -3.840308   1.225023 H        1 UNL1     0.0362
     68 H         -0.211937   -3.653373   -0.642494 H        1 UNL1     0.0741
     69 H         -0.415404   -1.436603   -2.081564 H        1 UNL1     0.0359
     70 H         1.35502   -0.296919   -2.834046 H        1 UNL1     0.0600
     71 H         1.180845   1.324669   -1.404071 H        1 UNL1     0.0348
     72 H         3.57787   0.952643   -1.185188 H        1 UNL1     0.0602
     73 H         4.077064   -3.477513   1.150592 H        1 UNL1     0.0628
     74 H         4.881071   -3.345948   -1.815362 H        1 UNL1     0.1022
     75 H         9.489085   5.910542   3.411287 H        1 UNL1     0.0279
     76 H         10.106048   5.067959   4.776099 H        1 UNL1     0.0279
     77 H         11.151054   5.49079   3.360305 H        1 UNL1     0.0279
     78 H         9.640404   2.968347   5.36147 H        1 UNL1     0.1553
     79 H         7.738534   3.184207   4.849101 H        1 UNL1     0.1484
     80 H         4.507051   1.191567   5.011568 H        1 UNL1     0.0317
     81 H         6.02762   0.590707   5.657139 H        1 UNL1     0.0317
     82 H         6.619305   2.864215   6.53735 H        1 UNL1     0.0428
     83 H         5.09148   2.276256   7.155216 H        1 UNL1     0.0428
     84 H         4.901499   5.06802   3.950049 H        1 UNL1     0.0428
     85 H         6.48146   4.662693   4.523245 H        1 UNL1     0.0428
     86 H         5.696592   3.504849   2.457276 H        1 UNL1     0.0317
     87 H         4.367165   2.787455   3.24488 H        1 UNL1     0.0317
     88 H         5.561501   4.99536   7.219723 H        1 UNL1     0.0429
     89 H         4.374881   5.760063   6.159818 H        1 UNL1     0.0429
     90 H         2.936362   3.582691   7.138645 H        1 UNL1     0.0308
     91 H         4.7882   4.512455   9.410438 H        1 UNL1     0.0233
     92 H         3.345873   3.484027   9.60414 H        1 UNL1     0.0233
     93 H         4.743464   2.888665   8.734147 H        1 UNL1     0.0233
     94 H         1.925785   5.253361   8.734371 H        1 UNL1     0.0233
     95 H         3.158086   6.401226   8.188322 H        1 UNL1     0.0233
     96 H         1.978364   5.746248   7.029334 H        1 UNL1     0.0233
     97 H         9.98479   -5.1172   1.396678 H        1 UNL1     0.0280
     98 H         11.584553   -4.489893   1.687252 H        1 UNL1     0.0280
     99 H         10.608379   -5.09936   3.056692 H        1 UNL1     0.0280
     100 H         11.84446   -3.243232   4.236716 H        1 UNL1     0.2922
     101 H         4.293272   2.118581   -2.429018 H        1 UNL1     0.0236
     102 H         6.098747   2.069076   -2.366824 H        1 UNL1     0.0236
     103 H         5.221906   3.527707   -2.021796 H        1 UNL1     0.0236
     104 H         2.988288   3.103602   -1.461889 H        1 UNL1     0.2098
     105 H         1.309767   -0.378577   1.073302 H        1 UNL1     0.0234
     106 H         0.641852   1.270295   0.911417 H        1 UNL1     0.0234
     107 H         -0.0   0.0   0.0 H        1 UNL1     0.0234
     108 H         3.158334   -1.840733   -1.322507 H        1 UNL1     0.2098
     109 H         2.756906   -1.469821   1.224195 H        1 UNL1     0.0234
     110 H         1.262716   -1.617565   2.203159 H        1 UNL1     0.0234
     111 H         2.561296   -2.739037   2.414902 H        1 UNL1     0.0234
     112 H         -3.597765   -1.403899   -1.546199 H        1 UNL1     0.0342
     113 H         -2.21324   -2.46633   -1.985024 H        1 UNL1     0.0342
     114 H         -3.334203   -2.942356   -0.706426 H        1 UNL1     0.0342
     115 H         -0.507217   -3.593399   -2.940439 H        1 UNL1     0.0234
     116 H         0.670342   -2.693274   -3.901644 H        1 UNL1     0.0234
     117 H         1.146368   -3.913104   -2.702035 H        1 UNL1     0.0234
     118 H         5.675367   -5.014793   1.772479 H        1 UNL1     0.0309
     119 H         6.617314   -4.107554   2.996291 H        1 UNL1     0.0309
     120 H         5.081523   -3.52028   2.397449 H        1 UNL1     0.0309
     121 H         4.059372   -5.21256   -1.932849 H        1 UNL1     0.0524
     122 H         2.591169   -6.16756   -1.689514 H        1 UNL1     0.0524
     123 H         2.81646   -5.270287   -3.211975 H        1 UNL1     0.0524
@<TRIPOS>BOND
     1     1     2    1
     2     1    42    1
     3     2     3    2
     4     3     4    1
     5     4     5    2
     6     5     7    1
     7     6    75    1
     8     6    76    1
     9     6    77    1
    10     7     9   am
    11     9    10    1
    12    10    11    2
    13    10    43    1
    14    11    14    1
    15    11    15    1
    16    12    13   ar
    17    12    27   ar
    18    12    43    1
    19    13    14    1
    20    13    30   ar
    21    14    17    2
    22    15    16    1
    23    16    17    1
    24    16    18    1
    25    16    22    1
    26    18    19    1
    27    19    20    1
    28    20    21    1
    29    21    22    1
    30    23    24    1
    31    23    88    1
    32    23    89    1
    33    24    25    1
    34    24    26    1
    35    24    90    1
    36    25    91    1
    37    25    92    1
    38    25    93    1
    39    26    94    1
    40    26    95    1
    41    26    96    1
    42    27    28   ar
    43    28    29   ar
    44    29    30   ar
    45    29    31    1
    46    30    33    1
    47    31    32    1
    48    32    33    1
    49    32    35    1
    50    34    97    1
    51    34    98    1
    52    34    99    1
    53    35    61    1
    54    36    37    1
    55    36    60    1
    56    37    38    1
    57    38    39    1
    58    39    40    1
    59    40    41    1
    60    41    42    1
    61    45   100    1
    62    47   101    1
    63    47   102    1
    64    47   103    1
    65    48   104    1
    66    49   105    1
    67    49   106    1
    68    49   107    1
    69    50   108    1
    70    51    59    1
    71    52   109    1
    72    52   110    1
    73    52   111    1
    74    53    54    1
    75    54    55    2
    76    54    56    1
    77    56   112    1
    78    56   113    1
    79    56   114    1
    80    57   115    1
    81    57   116    1
    82    57   117    1
    83    58   118    1
    84    58   119    1
    85    58   120    1
    86    59   121    1
    87    59   122    1
    88    59   123    1
    89    60    61    2
    90     1    47    1
    91     1    62    1
    92     2    63    1
    93     3    64    1
    94     4    65    1
    95     5     6    1
    96     7     8    2
    97     9    78    1
    98    15    79    1
    99    18    80    1
   100    18    81    1
   101    19    82    1
   102    19    83    1
   103    20    23    1
   104    21    84    1
   105    21    85    1
   106    22    86    1
   107    22    87    1
   108    27    45    1
   109    28    34    1
   110    32    58    1
   111    33    46    2
   112    36    51    1
   113    36    66    1
   114    37    52    1
   115    37    67    1
   116    38    53    1
   117    38    68    1
   118    42    48    1
   119    42    72    1
   120    43    44    2
   121    60    73    1
   122    61    74    1
   123    39    69    1
   124    39    57    1
   125    40    70    1
   126    40    50    1
   127    41    71    1
   128    41    49    1
