@<TRIPOS>MOLECULE
*****
 123 128 0 0 0
SMALL
GASTEIGER

@<TRIPOS>ATOM
     1 C         2.750327   -1.391771   2.909937 C.3        1 UNL1     0.0009
     2 C         4.557267   -1.739427   2.683795 C.2        1 UNL1     -0.0787
     3 C         5.646288   -2.682104   2.537374 C.2        1 UNL1     -0.0649
     4 C         7.273353   -2.349452   2.208193 C.2        1 UNL1     -0.0542
     5 C         8.493379   -2.884607   1.726296 C.2        1 UNL1     0.0115
     6 C         9.21485   -4.198239   1.317428 C.3        1 UNL1     -0.0348
     7 C         9.651128   -1.877394   1.254994 C.2        1 UNL1     0.2441
     8 O         10.630323   -1.620933   1.941967 O.2        1 UNL1     -0.2702
     9 N         9.598286   -1.512737   -0.101614 N.am        1 UNL1     -0.2772
     10 C         8.794395   -0.408961   -0.271203 C.2        1 UNL1     0.1049
     11 C         7.49663   -0.640758   -0.350567 C.2        1 UNL1     0.0801
     12 C         8.368472   1.890145   0.617634 C.ar        1 UNL1     0.0753
     13 C         6.990332   1.514621   0.70884 C.ar        1 UNL1     0.0305
     14 C         6.49159   0.281654   0.103778 C.2        1 UNL1     0.0924
     15 N         6.83396   -1.800122   -0.503115 N.pl3        1 UNL1     -0.3170
     16 C         5.443859   -1.488425   -0.704906 C.3        1 UNL1     0.1275
     17 N         5.245051   -0.171414   0.004798 N.2        1 UNL1     -0.2557
     18 C         5.256085   -1.200987   -2.191453 C.3        1 UNL1     0.0016
     19 C         5.752413   -2.399153   -2.984956 C.3        1 UNL1     0.0026
     20 N         4.995351   -3.575191   -2.578973 N.3        1 UNL1     -0.3018
     21 C         5.064186   -3.896827   -1.152025 C.3        1 UNL1     0.0026
     22 C         4.556701   -2.681374   -0.37419 C.3        1 UNL1     0.0016
     23 C         5.176889   -4.699767   -3.475084 C.3        1 UNL1     0.0012
     24 C         6.143441   -4.332055   -4.611888 C.3        1 UNL1     -0.0339
     25 C         7.491426   -3.834181   -4.064975 C.3        1 UNL1     -0.0615
     26 C         6.322272   -5.515655   -5.546709 C.3        1 UNL1     -0.0615
     27 C         8.813601   3.122337   1.090585 C.ar        1 UNL1     0.1347
     28 C         7.970966   4.074326   1.636234 C.ar        1 UNL1     0.0342
     29 C         6.626827   3.663221   1.760517 C.ar        1 UNL1     0.1435
     30 C         6.173026   2.417859   1.324217 C.ar        1 UNL1     0.0774
     31 O         5.663793   4.517056   2.171049 O.3        1 UNL1     -0.4436
     32 C         4.436387   3.920958   1.72494 C.3        1 UNL1     0.3143
     33 C         4.746123   2.445842   1.569024 C.2        1 UNL1     0.2504
     34 C         8.329767   5.504108   1.931337 C.3        1 UNL1     -0.0327
     35 O         3.491971   4.037986   2.796217 O.2        1 UNL1     -0.4528
     36 C         0.078823   4.278803   1.152893 C.3        1 UNL1     0.0854
     37 C         -0.621662   3.274076   0.159229 C.3        1 UNL1     0.0236
     38 C         -2.07213   2.768609   0.620088 C.3        1 UNL1     0.1131
     39 C         -2.274256   2.185705   2.076672 C.3        1 UNL1     0.0200
     40 C         -1.160339   1.126813   2.725034 C.3        1 UNL1     0.0661
     41 C         -0.552927   -0.263776   1.966797 C.3        1 UNL1     0.0091
     42 C         1.093502   -1.06346   2.089996 C.3        1 UNL1     0.0661
     43 C         9.29284   0.960976   -0.078389 C.2        1 UNL1     0.2131
     44 O         10.355326   1.306006   -0.562967 O.2        1 UNL1     -0.2851
     45 O         10.178081   3.391352   1.005356 O.3        1 UNL1     -0.5056
     46 O         3.989427   1.504253   1.65072 O.2        1 UNL1     -0.2836
     47 C         2.325266   -1.678479   4.375236 C.3        1 UNL1     -0.0566
     48 O         0.543296   -2.427566   2.278685 O.3        1 UNL1     -0.3909
     49 C         -0.910752   -0.214556   0.498113 C.3        1 UNL1     -0.0577
     50 O         -0.110185   1.829719   3.358141 O.3        1 UNL1     -0.3910
     51 O         -0.567191   4.471799   2.390976 O.3        1 UNL1     -0.3753
     52 C         0.410274   2.322254   -0.529314 C.3        1 UNL1     -0.0564
     53 O         -2.855406   2.110019   -0.477666 O.3        1 UNL1     -0.4608
     54 C         -2.386469   1.127325   -1.309736 C.2        1 UNL1     0.3042
     55 O         -2.955718   0.640789   -2.285993 O.2        1 UNL1     -0.2512
     56 C         -0.994507   0.670959   -0.976741 C.3        1 UNL1     0.0332
     57 C         -2.796932   3.378494   3.005241 C.3        1 UNL1     -0.0567
     58 C         4.14149   4.518991   0.329619 C.3        1 UNL1     0.0210
     59 C         -1.956137   4.145272   2.39965 C.3        1 UNL1     0.0372
     60 C         1.503777   3.973442   1.455254 C.2        1 UNL1     -0.0208
     61 C         2.158965   3.96776   2.616907 C.2        1 UNL1     0.0882
     62 H         2.969108   -0.318706   2.851818 H        1 UNL1     0.0365
     63 H         4.965731   -0.727444   2.722759 H        1 UNL1     0.0576
     64 H         5.466984   -3.757163   2.46523 H        1 UNL1     0.0615
     65 H         7.360224   -1.273832   2.384198 H        1 UNL1     0.0622
     66 H         0.083422   5.238577   0.6173 H        1 UNL1     0.0645
     67 H         -0.874185   3.896004   -0.717126 H        1 UNL1     0.0362
     68 H         -2.612259   3.727629   0.612056 H        1 UNL1     0.0741
     69 H         -3.18933   1.608955   2.096845 H        1 UNL1     0.0359
     70 H         -1.756548   0.710015   3.559225 H        1 UNL1     0.0600
     71 H         -1.273091   -1.017887   2.340481 H        1 UNL1     0.0348
     72 H         1.000684   -0.422022   2.978398 H        1 UNL1     0.0602
     73 H         2.037432   3.85963   0.544481 H        1 UNL1     0.0628
     74 H         1.680054   4.019968   3.595251 H        1 UNL1     0.1022
     75 H         8.81296   -5.063297   1.898111 H        1 UNL1     0.0279
     76 H         9.081831   -4.524744   0.288463 H        1 UNL1     0.0279
     77 H         10.274003   -4.21163   1.613598 H        1 UNL1     0.0279
     78 H         9.193678   -2.272716   -0.644569 H        1 UNL1     0.1553
     79 H         7.257502   -2.642836   -0.845718 H        1 UNL1     0.1484
     80 H         4.195051   -1.003336   -2.386147 H        1 UNL1     0.0317
     81 H         5.802426   -0.299089   -2.487667 H        1 UNL1     0.0317
     82 H         6.832495   -2.557703   -2.850056 H        1 UNL1     0.0428
     83 H         5.610954   -2.172253   -4.042101 H        1 UNL1     0.0428
     84 H         4.424283   -4.735317   -0.860019 H        1 UNL1     0.0428
     85 H         6.072704   -4.213995   -0.85267 H        1 UNL1     0.0428
     86 H         4.495547   -2.998221   0.650434 H        1 UNL1     0.0317
     87 H         3.512282   -2.476281   -0.639186 H        1 UNL1     0.0317
     88 H         5.612197   -5.527674   -2.900304 H        1 UNL1     0.0429
     89 H         4.216139   -5.053307   -3.870992 H        1 UNL1     0.0429
     90 H         5.697324   -3.535518   -5.219112 H        1 UNL1     0.0308
     91 H         8.319789   -4.449932   -4.427973 H        1 UNL1     0.0233
     92 H         7.664639   -2.794469   -4.352386 H        1 UNL1     0.0233
     93 H         7.532579   -3.859475   -2.969301 H        1 UNL1     0.0233
     94 H         6.269084   -5.184721   -6.589537 H        1 UNL1     0.0233
     95 H         7.30303   -5.972567   -5.38763 H        1 UNL1     0.0233
     96 H         5.549748   -6.272535   -5.384519 H        1 UNL1     0.0233
     97 H         7.775549   5.896729   2.77864 H        1 UNL1     0.0280
     98 H         9.39118   5.62018   2.186655 H        1 UNL1     0.0280
     99 H         8.105726   6.12987   1.05195 H        1 UNL1     0.0280
     100 H         10.463744   3.704066   0.164982 H        1 UNL1     0.2922
     101 H         2.492478   -0.792028   4.986711 H        1 UNL1     0.0236
     102 H         2.804877   -2.561765   4.795666 H        1 UNL1     0.0236
     103 H         1.244068   -1.877966   4.461317 H        1 UNL1     0.0236
     104 H         -0.077605   -2.393502   3.032536 H        1 UNL1     0.2098
     105 H         -1.296528   -1.148974   0.098298 H        1 UNL1     0.0234
     106 H         -1.559816   0.614017   0.215079 H        1 UNL1     0.0234
     107 H         0.0   0.0   0.0 H        1 UNL1     0.0234
     108 H         -0.448048   2.141875   4.219637 H        1 UNL1     0.2098
     109 H         0.456484   2.475502   -1.616554 H        1 UNL1     0.0234
     110 H         1.417158   2.400036   -0.105193 H        1 UNL1     0.0234
     111 H         0.143181   1.266349   -0.389059 H        1 UNL1     0.0234
     112 H         -1.021474   -0.013999   -0.123833 H        1 UNL1     0.0342
     113 H         -0.498642   0.212118   -1.830806 H        1 UNL1     0.0342
     114 H         -0.405855   1.551071   -0.683389 H        1 UNL1     0.0342
     115 H         -3.176322   3.010122   3.968337 H        1 UNL1     0.0234
     116 H         -2.0425   4.13837   3.218476 H        1 UNL1     0.0234
     117 H         -3.690247   3.888327   2.605242 H        1 UNL1     0.0234
     118 H         3.312999   3.995692   -0.179073 H        1 UNL1     0.0309
     119 H         3.923382   5.59126   0.359126 H        1 UNL1     0.0309
     120 H         4.980184   4.399147   -0.364885 H        1 UNL1     0.0309
     121 H         -2.281189   4.059748   1.363126 H        1 UNL1     0.0524
     122 H         -2.155541   3.178369   2.890947 H        1 UNL1     0.0524
     123 H         -2.521618   4.921778   2.906961 H        1 UNL1     0.0524
@<TRIPOS>BOND
     1     1     2    1
     2     1    42    1
     3     2     3    2
     4     3     4    1
     5     4     5    2
     6     5     7    1
     7     6    75    1
     8     6    76    1
     9     6    77    1
    10     7     9   am
    11     9    10    1
    12    10    11    2
    13    10    43    1
    14    11    14    1
    15    11    15    1
    16    12    13   ar
    17    12    27   ar
    18    12    43    1
    19    13    14    1
    20    13    30   ar
    21    14    17    2
    22    15    16    1
    23    16    17    1
    24    16    18    1
    25    16    22    1
    26    18    19    1
    27    19    20    1
    28    20    21    1
    29    21    22    1
    30    23    24    1
    31    23    88    1
    32    23    89    1
    33    24    25    1
    34    24    26    1
    35    24    90    1
    36    25    91    1
    37    25    92    1
    38    25    93    1
    39    26    94    1
    40    26    95    1
    41    26    96    1
    42    27    28   ar
    43    28    29   ar
    44    29    30   ar
    45    29    31    1
    46    30    33    1
    47    31    32    1
    48    32    33    1
    49    32    35    1
    50    34    97    1
    51    34    98    1
    52    34    99    1
    53    35    61    1
    54    36    37    1
    55    36    60    1
    56    37    38    1
    57    38    39    1
    58    39    40    1
    59    40    41    1
    60    41    42    1
    61    45   100    1
    62    47   101    1
    63    47   102    1
    64    47   103    1
    65    48   104    1
    66    49   105    1
    67    49   106    1
    68    49   107    1
    69    50   108    1
    70    51    59    1
    71    52   109    1
    72    52   110    1
    73    52   111    1
    74    53    54    1
    75    54    55    2
    76    54    56    1
    77    56   112    1
    78    56   113    1
    79    56   114    1
    80    57   115    1
    81    57   116    1
    82    57   117    1
    83    58   118    1
    84    58   119    1
    85    58   120    1
    86    59   121    1
    87    59   122    1
    88    59   123    1
    89    60    61    2
    90     1    47    1
    91     1    62    1
    92     2    63    1
    93     3    64    1
    94     4    65    1
    95     5     6    1
    96     7     8    2
    97     9    78    1
    98    15    79    1
    99    18    80    1
   100    18    81    1
   101    19    82    1
   102    19    83    1
   103    20    23    1
   104    21    84    1
   105    21    85    1
   106    22    86    1
   107    22    87    1
   108    27    45    1
   109    28    34    1
   110    32    58    1
   111    33    46    2
   112    36    51    1
   113    36    66    1
   114    37    52    1
   115    37    67    1
   116    38    53    1
   117    38    68    1
   118    42    48    1
   119    42    72    1
   120    43    44    2
   121    60    73    1
   122    61    74    1
   123    39    69    1
   124    39    57    1
   125    40    70    1
   126    40    50    1
   127    41    71    1
   128    41    49    1
