@<TRIPOS>MOLECULE
*****
 123 128 0 0 0
SMALL
GASTEIGER

@<TRIPOS>ATOM
     1 C         5.164725   1.75515   0.494618 C.3        1 UNL1     0.0009
     2 C         6.603473   2.556179   -0.357082 C.2        1 UNL1     -0.0787
     3 C         7.88746   2.454145   -1.018152 C.2        1 UNL1     -0.0649
     4 C         8.766388   3.684462   -1.779837 C.2        1 UNL1     -0.0542
     5 C         9.789097   3.971118   -2.717372 C.2        1 UNL1     0.0115
     6 C         10.920377   3.340305   -3.575045 C.3        1 UNL1     -0.0348
     7 C         9.885291   5.450075   -3.334154 C.2        1 UNL1     0.2441
     8 O         10.70745   6.274975   -2.959827 O.2        1 UNL1     -0.2702
     9 N         9.138534   5.648156   -4.508577 N.am        1 UNL1     -0.2772
     10 C         7.854597   6.036166   -4.201531 C.2        1 UNL1     0.1049
     11 C         7.008578   5.066267   -3.905269 C.2        1 UNL1     0.0801
     12 C         6.550779   7.651932   -2.806291 C.ar        1 UNL1     0.0753
     13 C         5.791116   6.526706   -2.353095 C.ar        1 UNL1     0.0305
     14 C         5.91092   5.216515   -2.988782 C.2        1 UNL1     0.0924
     15 N         7.132591   3.736274   -4.05449 N.pl3        1 UNL1     -0.3170
     16 C         5.862179   3.13847   -3.739945 C.3        1 UNL1     0.1275
     17 N         5.222118   4.100227   -2.768827 N.2        1 UNL1     -0.2557
     18 C         5.013181   3.187922   -5.006618 C.3        1 UNL1     0.0016
     19 C         5.771995   2.496323   -6.127993 C.3        1 UNL1     0.0026
     20 N         6.041886   1.1212   -5.731478 N.3        1 UNL1     -0.3018
     21 C         6.801537   0.970191   -4.488701 C.3        1 UNL1     0.0026
     22 C         6.018878   1.668147   -3.375059 C.3        1 UNL1     0.0016
     23 C         6.490361   0.294076   -6.833921 C.3        1 UNL1     0.0012
     24 C         5.336996   0.033164   -7.815466 C.3        1 UNL1     -0.0339
     25 C         5.355953   1.032444   -8.983857 C.3        1 UNL1     -0.0615
     26 C         5.386523   -1.402951   -8.3073 C.3        1 UNL1     -0.0615
     27 C         6.343598   8.923301   -2.276371 C.ar        1 UNL1     0.1347
     28 C         5.38141   9.199021   -1.321268 C.ar        1 UNL1     0.0342
     29 C         4.679207   8.067394   -0.854903 C.ar        1 UNL1     0.1435
     30 C         4.901075   6.781946   -1.350501 C.ar        1 UNL1     0.0774
     31 O         3.63552   8.18632   -0.005444 O.3        1 UNL1     -0.4436
     32 C         2.915121   6.952011   -0.141009 C.3        1 UNL1     0.3143
     33 C         3.930723   5.955842   -0.662942 C.2        1 UNL1     0.2504
     34 C         4.932291   10.567923   -0.891733 C.3        1 UNL1     -0.0327
     35 O         2.55074   6.524468   1.177204 O.2        1 UNL1     -0.4528
     36 C         -0.689758   4.587223   0.784344 C.3        1 UNL1     0.0854
     37 C         -0.991451   3.320047   -0.104909 C.3        1 UNL1     0.0236
     38 C         -1.593565   2.064243   0.690175 C.3        1 UNL1     0.1131
     39 C         -0.871443   1.543128   1.997557 C.3        1 UNL1     0.0200
     40 C         0.789714   1.399046   2.044853 C.3        1 UNL1     0.0661
     41 C         1.753186   0.622558   0.88451 C.3        1 UNL1     0.0091
     42 C         3.462249   0.982274   0.323161 C.3        1 UNL1     0.0661
     43 C         7.504396   7.436891   -3.922817 C.2        1 UNL1     0.2131
     44 O         7.905871   8.330092   -4.646522 O.2        1 UNL1     -0.2851
     45 O         7.156565   9.955674   -2.739759 O.3        1 UNL1     -0.5056
     46 O         3.947129   4.753285   -0.523515 O.2        1 UNL1     -0.2836
     47 C         5.556967   1.336242   1.937062 C.3        1 UNL1     -0.0566
     48 O         3.911518   -0.427896   0.416407 O.3        1 UNL1     -0.3909
     49 C         0.922963   0.380525   -0.356314 C.3        1 UNL1     -0.0577
     50 O         1.387879   2.620106   2.430774 O.3        1 UNL1     -0.3910
     51 O         -0.817982   4.407414   2.176701 O.3        1 UNL1     -0.3753
     52 C         0.056641   3.152071   -1.253054 C.3        1 UNL1     -0.0564
     53 O         -2.192702   1.01843   -0.204049 O.3        1 UNL1     -0.4608
     54 C         -2.415147   -0.289284   0.139944 C.2        1 UNL1     0.3042
     55 O         -1.840935   -1.285048   -0.29889 O.2        1 UNL1     -0.2512
     56 C         -3.447706   -0.460389   1.217561 C.3        1 UNL1     0.0332
     57 C         -1.596785   2.22062   3.251774 C.3        1 UNL1     -0.0567
     58 C         1.843087   7.188589   -1.230185 C.3        1 UNL1     0.0210
     59 C         -1.17285   5.583328   2.902761 C.3        1 UNL1     0.0372
     60 C         0.639512   5.21557   0.553299 C.2        1 UNL1     -0.0208
     61 C         1.549485   5.657649   1.422355 C.2        1 UNL1     0.0882
     62 H         4.687874   2.739589   0.573386 H        1 UNL1     0.0365
     63 H         6.336192   3.610519   -0.260136 H        1 UNL1     0.0576
     64 H         8.346443   1.486058   -1.230874 H        1 UNL1     0.0615
     65 H         8.277626   4.601976   -1.441069 H        1 UNL1     0.0622
     66 H         -1.43396   5.330992   0.466512 H        1 UNL1     0.0645
     67 H         -1.855333   3.624427   -0.721043 H        1 UNL1     0.0362
     68 H         -2.542002   2.502963   1.035881 H        1 UNL1     0.0741
     69 H         -1.202878   0.533223   2.199178 H        1 UNL1     0.0359
     70 H         0.899239   0.745117   2.931104 H        1 UNL1     0.0600
     71 H         1.796153   -0.395495   1.318882 H        1 UNL1     0.0348
     72 H         3.353041   1.477404   1.298986 H        1 UNL1     0.0602
     73 H         0.760444   5.405478   -0.484275 H        1 UNL1     0.0628
     74 H         1.528809   5.454635   2.493614 H        1 UNL1     0.1022
     75 H         10.965137   2.236181   -3.413983 H        1 UNL1     0.0279
     76 H         10.809988   3.415293   -4.654517 H        1 UNL1     0.0279
     77 H         11.924242   3.64804   -3.247547 H        1 UNL1     0.0279
     78 H         9.078726   4.77443   -5.027328 H        1 UNL1     0.1553
     79 H         7.800035   3.304338   -4.666766 H        1 UNL1     0.1484
     80 H         4.051643   2.697721   -4.811908 H        1 UNL1     0.0317
     81 H         4.786703   4.222551   -5.285729 H        1 UNL1     0.0317
     82 H         6.703053   3.026485   -6.376936 H        1 UNL1     0.0428
     83 H         5.149535   2.544645   -7.022006 H        1 UNL1     0.0428
     84 H         6.921615   -0.070437   -4.171704 H        1 UNL1     0.0428
     85 H         7.831693   1.338189   -4.592008 H        1 UNL1     0.0428
     86 H         6.532691   1.424652   -2.463635 H        1 UNL1     0.0317
     87 H         5.039378   1.190736   -3.249542 H        1 UNL1     0.0317
     88 H         7.285481   0.833993   -7.364552 H        1 UNL1     0.0429
     89 H         6.925347   -0.647505   -6.474775 H        1 UNL1     0.0429
     90 H         4.383254   0.135109   -7.284244 H        1 UNL1     0.0308
     91 H         6.304738   0.991136   -9.527183 H        1 UNL1     0.0233
     92 H         4.536327   0.831186   -9.677627 H        1 UNL1     0.0233
     93 H         5.225846   2.068751   -8.649229 H        1 UNL1     0.0233
     94 H         4.691415   -1.540287   -9.142644 H        1 UNL1     0.0233
     95 H         6.392677   -1.64149   -8.663273 H        1 UNL1     0.0233
     96 H         5.116808   -2.105907   -7.514158 H        1 UNL1     0.0233
     97 H         4.136728   10.522891   -0.153978 H        1 UNL1     0.0280
     98 H         5.74322   11.141876   -0.424585 H        1 UNL1     0.0280
     99 H         4.560891   11.125948   -1.766813 H        1 UNL1     0.0280
     100 H         6.69001   10.703229   -3.07008 H        1 UNL1     0.2922
     101 H         4.693314   0.904203   2.442137 H        1 UNL1     0.0236
     102 H         6.004039   2.146445   2.512111 H        1 UNL1     0.0236
     103 H         6.314899   0.53519   1.944025 H        1 UNL1     0.0236
     104 H         4.328465   -0.547329   1.292113 H        1 UNL1     0.2098
     105 H         0.712094   1.274965   -0.93711 H        1 UNL1     0.0234
     106 H         1.294469   -0.412427   -1.005265 H        1 UNL1     0.0234
     107 H         0.0   -0.0   0.0 H        1 UNL1     0.0234
     108 H         1.188606   3.273972   1.733266 H        1 UNL1     0.2098
     109 H         1.079623   3.03585   -0.868722 H        1 UNL1     0.0234
     110 H         -0.176459   2.323783   -1.930806 H        1 UNL1     0.0234
     111 H         0.083623   4.032789   -1.908458 H        1 UNL1     0.0234
     112 H         -3.574144   -1.522908   1.446502 H        1 UNL1     0.0342
     113 H         -3.201331   0.105917   2.114466 H        1 UNL1     0.0342
     114 H         -4.406369   -0.081384   0.83745 H        1 UNL1     0.0342
     115 H         -2.660918   1.951827   3.302366 H        1 UNL1     0.0234
     116 H         -1.147999   1.967275   4.2143 H        1 UNL1     0.0234
     117 H         -1.657816   3.320412   3.183399 H        1 UNL1     0.0234
     118 H         0.940428   7.677806   -0.824132 H        1 UNL1     0.0309
     119 H         2.21464   7.77075   -2.079443 H        1 UNL1     0.0309
     120 H         1.456449   6.253336   -1.649611 H        1 UNL1     0.0309
     121 H         -0.374469   6.311378   2.761741 H        1 UNL1     0.0524
     122 H         -2.106351   6.038303   2.531802 H        1 UNL1     0.0524
     123 H         -1.287989   5.353004   3.958123 H        1 UNL1     0.0524
@<TRIPOS>BOND
     1     1     2    1
     2     1    42    1
     3     2     3    2
     4     3     4    1
     5     4     5    2
     6     5     7    1
     7     6    75    1
     8     6    76    1
     9     6    77    1
    10     7     9   am
    11     9    10    1
    12    10    11    2
    13    10    43    1
    14    11    14    1
    15    11    15    1
    16    12    13   ar
    17    12    27   ar
    18    12    43    1
    19    13    14    1
    20    13    30   ar
    21    14    17    2
    22    15    16    1
    23    16    17    1
    24    16    18    1
    25    16    22    1
    26    18    19    1
    27    19    20    1
    28    20    21    1
    29    21    22    1
    30    23    24    1
    31    23    88    1
    32    23    89    1
    33    24    25    1
    34    24    26    1
    35    24    90    1
    36    25    91    1
    37    25    92    1
    38    25    93    1
    39    26    94    1
    40    26    95    1
    41    26    96    1
    42    27    28   ar
    43    28    29   ar
    44    29    30   ar
    45    29    31    1
    46    30    33    1
    47    31    32    1
    48    32    33    1
    49    32    35    1
    50    34    97    1
    51    34    98    1
    52    34    99    1
    53    35    61    1
    54    36    37    1
    55    36    60    1
    56    37    38    1
    57    38    39    1
    58    39    40    1
    59    40    41    1
    60    41    42    1
    61    45   100    1
    62    47   101    1
    63    47   102    1
    64    47   103    1
    65    48   104    1
    66    49   105    1
    67    49   106    1
    68    49   107    1
    69    50   108    1
    70    51    59    1
    71    52   109    1
    72    52   110    1
    73    52   111    1
    74    53    54    1
    75    54    55    2
    76    54    56    1
    77    56   112    1
    78    56   113    1
    79    56   114    1
    80    57   115    1
    81    57   116    1
    82    57   117    1
    83    58   118    1
    84    58   119    1
    85    58   120    1
    86    59   121    1
    87    59   122    1
    88    59   123    1
    89    60    61    2
    90     1    47    1
    91     1    62    1
    92     2    63    1
    93     3    64    1
    94     4    65    1
    95     5     6    1
    96     7     8    2
    97     9    78    1
    98    15    79    1
    99    18    80    1
   100    18    81    1
   101    19    82    1
   102    19    83    1
   103    20    23    1
   104    21    84    1
   105    21    85    1
   106    22    86    1
   107    22    87    1
   108    27    45    1
   109    28    34    1
   110    32    58    1
   111    33    46    2
   112    36    51    1
   113    36    66    1
   114    37    52    1
   115    37    67    1
   116    38    53    1
   117    38    68    1
   118    42    48    1
   119    42    72    1
   120    43    44    2
   121    60    73    1
   122    61    74    1
   123    39    69    1
   124    39    57    1
   125    40    70    1
   126    40    50    1
   127    41    71    1
   128    41    49    1
