@<TRIPOS>MOLECULE
*****
 123 128 0 0 0
SMALL
GASTEIGER

@<TRIPOS>ATOM
     1 C         3.776181   -1.746595   -2.844285 C.3        1 UNL1     0.0009
     2 C         4.13115   -1.919325   -4.655692 C.2        1 UNL1     -0.0787
     3 C         4.379825   -2.752879   -5.813015 C.2        1 UNL1     -0.0649
     4 C         4.541005   -2.270201   -7.427759 C.2        1 UNL1     -0.0542
     5 C         4.485843   -2.695956   -8.777858 C.2        1 UNL1     0.0115
     6 C         4.395769   -3.943327   -9.69942 C.3        1 UNL1     -0.0348
     7 C         4.328491   -1.593668   -9.934227 C.2        1 UNL1     0.2441
     8 O         5.263631   -1.219392   -10.628459 O.2        1 UNL1     -0.2702
     9 N         3.00049   -1.278941   -10.271142 N.am        1 UNL1     -0.2772
     10 C         2.52822   -0.266686   -9.467636 C.2        1 UNL1     0.1049
     11 C         2.072528   -0.629081   -8.282209 C.2        1 UNL1     0.0801
     12 C         3.104801   2.005319   -8.594204 C.ar        1 UNL1     0.0753
     13 C         2.79557   1.497334   -7.292307 C.ar        1 UNL1     0.0305
     14 C         2.14337   0.202374   -7.111295 C.2        1 UNL1     0.0924
     15 N         1.796329   -1.852952   -7.80015 N.pl3        1 UNL1     -0.3170
     16 C         1.163288   -1.687888   -6.518641 C.3        1 UNL1     0.1275
     17 N         1.697981   -0.375591   -5.99931 N.2        1 UNL1     -0.2557
     18 C         -0.32458   -1.467495   -6.774332 C.3        1 UNL1     0.0016
     19 C         -0.855755   -2.634573   -7.591259 C.3        1 UNL1     0.0026
     20 N         -0.628564   -3.866871   -6.849062 N.3        1 UNL1     -0.3018
     21 C         0.768573   -4.135006   -6.501958 C.3        1 UNL1     0.0026
     22 C         1.280415   -2.95234   -5.677813 C.3        1 UNL1     0.0016
     23 C         -1.357386   -4.995371   -7.393073 C.3        1 UNL1     0.0012
     24 C         -2.864495   -4.836961   -7.137561 C.3        1 UNL1     -0.0339
     25 C         -3.540302   -6.197109   -6.898105 C.3        1 UNL1     -0.0615
     26 C         -3.098826   -3.884476   -5.977974 C.3        1 UNL1     -0.0615
     27 C         3.615146   3.290009   -8.765197 C.ar        1 UNL1     0.1347
     28 C         3.820351   4.169941   -7.717504 C.ar        1 UNL1     0.0342
     29 C         3.555051   3.631   -6.440663 C.ar        1 UNL1     0.1435
     30 C         3.077716   2.3335   -6.251282 C.ar        1 UNL1     0.0774
     31 O         3.601147   4.397065   -5.328895 O.3        1 UNL1     -0.4436
     32 C         2.840172   3.667843   -4.354203 C.3        1 UNL1     0.3143
     33 C         2.875296   2.226783   -4.821455 C.2        1 UNL1     0.2504
     34 C         4.123412   5.636939   -7.844666 C.3        1 UNL1     -0.0327
     35 O         3.564759   3.723773   -3.119255 O.2        1 UNL1     -0.4528
     36 C         0.95078   3.571335   -0.371172 C.3        1 UNL1     0.0854
     37 C         -0.146009   2.471032   -0.099308 C.3        1 UNL1     0.0236
     38 C         -0.117879   1.838231   1.373959 C.3        1 UNL1     0.1131
     39 C         1.24093   1.284179   1.964667 C.3        1 UNL1     0.0200
     40 C         2.259891   0.362525   1.018777 C.3        1 UNL1     0.0661
     41 C         1.80764   -0.98374   0.091065 C.3        1 UNL1     0.0091
     42 C         2.47336   -1.611037   -1.49913 C.3        1 UNL1     0.0661
     43 C         2.78007   1.1515   -9.763735 C.2        1 UNL1     0.2131
     44 O         2.621229   1.585318   -10.890371 O.2        1 UNL1     -0.2851
     45 O         3.932358   3.690894   -10.061386 O.3        1 UNL1     -0.5056
     46 O         2.780074   1.217486   -4.159558 O.2        1 UNL1     -0.2836
     47 C         5.057623   -2.028023   -2.014414 C.3        1 UNL1     -0.0566
     48 O         2.56817   -3.016585   -1.035923 O.3        1 UNL1     -0.3909
     49 C         0.299512   -1.01665   -0.018302 C.3        1 UNL1     -0.0577
     50 O         3.138353   1.18618   0.278763 O.3        1 UNL1     -0.3910
     51 O         1.920026   3.73781   0.638917 O.3        1 UNL1     -0.3753
     52 C         -0.429578   1.605643   -1.370386 C.3        1 UNL1     -0.0564
     53 O         -1.359738   1.070641   1.721693 O.3        1 UNL1     -0.4608
     54 C         -1.725754   -0.135453   1.183829 C.2        1 UNL1     0.3042
     55 O         -2.695397   -0.368403   0.463158 O.2        1 UNL1     -0.2512
     56 C         -0.768176   -1.249475   1.498016 C.3        1 UNL1     0.0332
     57 C         1.892848   2.447531   2.847724 C.3        1 UNL1     -0.0567
     58 C         1.387701   4.18932   -4.453809 C.3        1 UNL1     0.0210
     59 C         2.932451   4.699457   0.345496 C.3        1 UNL1     0.0372
     60 C         1.689649   3.419209   -1.654173 C.2        1 UNL1     -0.0208
     61 C         2.993553   3.515407   -1.917467 C.2        1 UNL1     0.0882
     62 H         3.722444   -0.659426   -2.978032 H        1 UNL1     0.0365
     63 H         4.231044   -0.870941   -4.944454 H        1 UNL1     0.0576
     64 H         4.32182   -3.842192   -5.756983 H        1 UNL1     0.0615
     65 H         4.669648   -1.186279   -7.364154 H        1 UNL1     0.0622
     66 H         0.384844   4.509464   -0.458779 H        1 UNL1     0.0645
     67 H         -1.093613   3.036817   -0.077098 H        1 UNL1     0.0362
     68 H         -0.347646   2.737899   1.964998 H        1 UNL1     0.0741
     69 H         1.017016   0.62   2.788764 H        1 UNL1     0.0359
     70 H         2.897146   -0.085191   1.805236 H        1 UNL1     0.0600
     71 H         1.989796   -1.793759   0.824307 H        1 UNL1     0.0348
     72 H         3.251045   -0.954426   -1.082736 H        1 UNL1     0.0602
     73 H         0.992687   3.330576   -2.450186 H        1 UNL1     0.0628
     74 H         3.775121   3.550354   -1.157752 H        1 UNL1     0.1022
     75 H         5.12547   -4.72392   -9.375004 H        1 UNL1     0.0279
     76 H         3.453073   -4.485838   -9.690766 H        1 UNL1     0.0279
     77 H         4.737427   -3.739994   -10.724908 H        1 UNL1     0.0279
     78 H         2.407315   -2.092167   -10.119869 H        1 UNL1     0.1553
     79 H         1.650251   -2.659602   -8.378865 H        1 UNL1     0.1484
     80 H         -0.844   -1.382823   -5.812147 H        1 UNL1     0.0317
     81 H         -0.494828   -0.525389   -7.306406 H        1 UNL1     0.0317
     82 H         -0.389767   -2.680339   -8.586584 H        1 UNL1     0.0428
     83 H         -1.917608   -2.456264   -7.763666 H        1 UNL1     0.0428
     84 H         0.902559   -5.023511   -5.877124 H        1 UNL1     0.0428
     85 H         1.378786   -4.340484   -7.392315 H        1 UNL1     0.0428
     86 H         2.255238   -3.241324   -5.331118 H        1 UNL1     0.0317
     87 H         0.698748   -2.860823   -4.752403 H        1 UNL1     0.0317
     88 H         -1.187539   -5.020979   -8.477412 H        1 UNL1     0.0429
     89 H         -0.984435   -5.944307   -6.986624 H        1 UNL1     0.0429
     90 H         -3.329306   -4.365124   -8.011365 H        1 UNL1     0.0308
     91 H         -2.963766   -6.810062   -6.198821 H        1 UNL1     0.0233
     92 H         -4.551662   -6.062496   -6.507412 H        1 UNL1     0.0233
     93 H         -3.644179   -6.780108   -7.821228 H        1 UNL1     0.0233
     94 H         -2.702396   -4.313033   -5.051142 H        1 UNL1     0.0233
     95 H         -2.580843   -2.938816   -6.160683 H        1 UNL1     0.0233
     96 H         -4.164216   -3.681889   -5.837012 H        1 UNL1     0.0233
     97 H         5.029852   5.817828   -8.414646 H        1 UNL1     0.0280
     98 H         3.325878   6.18043   -8.367938 H        1 UNL1     0.0280
     99 H         4.252679   6.075376   -6.841592 H        1 UNL1     0.0280
     100 H         4.456013   3.075917   -10.544306 H        1 UNL1     0.2922
     101 H         4.806337   -2.633808   -1.144049 H        1 UNL1     0.0236
     102 H         5.598228   -1.122704   -1.740318 H        1 UNL1     0.0236
     103 H         5.789369   -2.633451   -2.574948 H        1 UNL1     0.0236
     104 H         1.852306   -3.519544   -1.471287 H        1 UNL1     0.2098
     105 H         -0.074493   -1.457161   -0.939107 H        1 UNL1     0.0234
     106 H         -0.210094   -1.450189   0.84209 H        1 UNL1     0.0234
     107 H         -0.0   0.0   0.0 H        1 UNL1     0.0234
     108 H         3.561377   1.799819   0.909846 H        1 UNL1     0.2098
     109 H         -1.459901   1.223987   -1.392402 H        1 UNL1     0.0234
     110 H         -0.213741   2.13203   -2.306375 H        1 UNL1     0.0234
     111 H         0.216816   0.718704   -1.408614 H        1 UNL1     0.0234
     112 H         -0.19714   -1.006316   2.399202 H        1 UNL1     0.0342
     113 H         -1.274882   -2.207612   1.603214 H        1 UNL1     0.0342
     114 H         -0.058947   -1.33785   0.663541 H        1 UNL1     0.0342
     115 H         1.891087   2.197833   3.917694 H        1 UNL1     0.0234
     116 H         2.919581   2.693593   2.569655 H        1 UNL1     0.0234
     117 H         1.306232   3.382315   2.846087 H        1 UNL1     0.0234
     118 H         0.881628   3.834506   -5.368688 H        1 UNL1     0.0309
     119 H         0.77727   3.929464   -3.583148 H        1 UNL1     0.0309
     120 H         1.337921   5.279922   -4.544444 H        1 UNL1     0.0309
     121 H         3.793036   4.161551   -0.051249 H        1 UNL1     0.0524
     122 H         2.611546   5.424091   -0.421291 H        1 UNL1     0.0524
     123 H         3.210509   5.23923   1.246286 H        1 UNL1     0.0524
@<TRIPOS>BOND
     1     1     2    1
     2     1    42    1
     3     2     3    2
     4     3     4    1
     5     4     5    2
     6     5     7    1
     7     6    75    1
     8     6    76    1
     9     6    77    1
    10     7     9   am
    11     9    10    1
    12    10    11    2
    13    10    43    1
    14    11    14    1
    15    11    15    1
    16    12    13   ar
    17    12    27   ar
    18    12    43    1
    19    13    14    1
    20    13    30   ar
    21    14    17    2
    22    15    16    1
    23    16    17    1
    24    16    18    1
    25    16    22    1
    26    18    19    1
    27    19    20    1
    28    20    21    1
    29    21    22    1
    30    23    24    1
    31    23    88    1
    32    23    89    1
    33    24    25    1
    34    24    26    1
    35    24    90    1
    36    25    91    1
    37    25    92    1
    38    25    93    1
    39    26    94    1
    40    26    95    1
    41    26    96    1
    42    27    28   ar
    43    28    29   ar
    44    29    30   ar
    45    29    31    1
    46    30    33    1
    47    31    32    1
    48    32    33    1
    49    32    35    1
    50    34    97    1
    51    34    98    1
    52    34    99    1
    53    35    61    1
    54    36    37    1
    55    36    60    1
    56    37    38    1
    57    38    39    1
    58    39    40    1
    59    40    41    1
    60    41    42    1
    61    45   100    1
    62    47   101    1
    63    47   102    1
    64    47   103    1
    65    48   104    1
    66    49   105    1
    67    49   106    1
    68    49   107    1
    69    50   108    1
    70    51    59    1
    71    52   109    1
    72    52   110    1
    73    52   111    1
    74    53    54    1
    75    54    55    2
    76    54    56    1
    77    56   112    1
    78    56   113    1
    79    56   114    1
    80    57   115    1
    81    57   116    1
    82    57   117    1
    83    58   118    1
    84    58   119    1
    85    58   120    1
    86    59   121    1
    87    59   122    1
    88    59   123    1
    89    60    61    2
    90     1    47    1
    91     1    62    1
    92     2    63    1
    93     3    64    1
    94     4    65    1
    95     5     6    1
    96     7     8    2
    97     9    78    1
    98    15    79    1
    99    18    80    1
   100    18    81    1
   101    19    82    1
   102    19    83    1
   103    20    23    1
   104    21    84    1
   105    21    85    1
   106    22    86    1
   107    22    87    1
   108    27    45    1
   109    28    34    1
   110    32    58    1
   111    33    46    2
   112    36    51    1
   113    36    66    1
   114    37    52    1
   115    37    67    1
   116    38    53    1
   117    38    68    1
   118    42    48    1
   119    42    72    1
   120    43    44    2
   121    60    73    1
   122    61    74    1
   123    39    69    1
   124    39    57    1
   125    40    70    1
   126    40    50    1
   127    41    71    1
   128    41    49    1
