@<TRIPOS>MOLECULE
*****
 123 128 0 0 0
SMALL
GASTEIGER

@<TRIPOS>ATOM
     1 C         5.167241   1.747913   0.493655 C.3        1 UNL1     0.0009
     2 C         6.604353   2.55405   -0.355985 C.2        1 UNL1     -0.0787
     3 C         7.886459   2.455863   -1.021273 C.2        1 UNL1     -0.0649
     4 C         8.764359   3.69107   -1.7762 C.2        1 UNL1     -0.0542
     5 C         9.784768   3.983828   -2.714355 C.2        1 UNL1     0.0115
     6 C         10.913191   3.35846   -3.579746 C.3        1 UNL1     -0.0348
     7 C         9.880541   5.467238   -3.320417 C.2        1 UNL1     0.2441
     8 O         10.704405   6.288663   -2.942218 O.2        1 UNL1     -0.2702
     9 N         9.130774   5.674636   -4.491309 N.am        1 UNL1     -0.2772
     10 C         7.848001   6.061415   -4.177914 C.2        1 UNL1     0.1049
     11 C         7.001969   5.090043   -3.886555 C.2        1 UNL1     0.0801
     12 C         6.549327   7.667864   -2.767204 C.ar        1 UNL1     0.0753
     13 C         5.789945   6.539934   -2.320301 C.ar        1 UNL1     0.0305
     14 C         5.906923   5.234394   -2.966005 C.2        1 UNL1     0.0924
     15 N         7.124456   3.761091   -4.045965 N.pl3        1 UNL1     -0.3170
     16 C         5.854396   3.162017   -3.732416 C.3        1 UNL1     0.1275
     17 N         5.217778   4.117073   -2.752463 N.2        1 UNL1     -0.2557
     18 C         5.002016   3.221559   -4.996379 C.3        1 UNL1     0.0016
     19 C         5.757208   2.537668   -6.124904 C.3        1 UNL1     0.0026
     20 N         6.027012   1.159422   -5.739327 N.3        1 UNL1     -0.3018
     21 C         6.789896   0.998577   -4.499768 C.3        1 UNL1     0.0026
     22 C         6.010842   1.6889   -3.378864 C.3        1 UNL1     0.0016
     23 C         6.471803   0.340125   -6.849082 C.3        1 UNL1     0.0012
     24 C         5.316679   0.091086   -7.831642 C.3        1 UNL1     -0.0339
     25 C         5.342801   1.094581   -8.996276 C.3        1 UNL1     -0.0615
     26 C         5.356047   -1.34349   -8.328857 C.3        1 UNL1     -0.0615
     27 C         6.344654   8.935439   -2.227315 C.ar        1 UNL1     0.1347
     28 C         5.385286   9.204862   -1.267588 C.ar        1 UNL1     0.0342
     29 C         4.683394   8.070387   -0.80772 C.ar        1 UNL1     0.1435
     30 C         4.902836   6.788467   -1.313433 C.ar        1 UNL1     0.0774
     31 O         3.642111   8.183871   0.045426 O.3        1 UNL1     -0.4436
     32 C         2.920307   6.951194   -0.097331 C.3        1 UNL1     0.3143
     33 C         3.933653   5.958087   -0.629386 C.2        1 UNL1     0.2504
     34 C         4.938486   10.570911   -0.826702 C.3        1 UNL1     -0.0327
     35 O         2.559136   6.514189   1.218661 O.2        1 UNL1     -0.4528
     36 C         -0.684047   4.582578   0.820245 C.3        1 UNL1     0.0854
     37 C         -0.989214   3.32228   -0.077554 C.3        1 UNL1     0.0236
     38 C         -1.590232   2.06111   0.70983 C.3        1 UNL1     0.1131
     39 C         -0.865014   1.529722   2.01135 C.3        1 UNL1     0.0200
     40 C         0.796142   1.383926   2.05307 C.3        1 UNL1     0.0661
     41 C         1.755816   0.61527   0.884394 C.3        1 UNL1     0.0091
     42 C         3.463656   0.977731   0.321093 C.3        1 UNL1     0.0661
     43 C         7.499737   7.460323   -3.887877 C.2        1 UNL1     0.2131
     44 O         7.900005   8.358534   -4.606027 O.2        1 UNL1     -0.2851
     45 O         7.157233   9.970551   -2.685242 O.3        1 UNL1     -0.5056
     46 O         3.949421   4.754516   -0.498921 O.2        1 UNL1     -0.2836
     47 C         5.563032   1.317999   1.931885 C.3        1 UNL1     -0.0566
     48 O         3.911985   -0.433461   0.402665 O.3        1 UNL1     -0.3909
     49 C         0.922033   0.383127   -0.355933 C.3        1 UNL1     -0.0577
     50 O         1.396379   2.601598   2.446407 O.3        1 UNL1     -0.3910
     51 O         -0.808654   4.392557   2.211574 O.3        1 UNL1     -0.3753
     52 C         0.055624   3.161958   -1.229752 C.3        1 UNL1     -0.0564
     53 O         -2.192669   1.02245   -0.190492 O.3        1 UNL1     -0.4608
     54 C         -2.415285   -0.287595   0.1444 C.2        1 UNL1     0.3042
     55 O         -1.842975   -1.280537   -0.303222 O.2        1 UNL1     -0.2512
     56 C         -3.445257   -0.46585   1.223333 C.3        1 UNL1     0.0332
     57 C         -1.586388   2.198493   3.272517 C.3        1 UNL1     -0.0567
     58 C         1.845529   7.196724   -1.18181 C.3        1 UNL1     0.0210
     59 C         -1.152859   5.565054   2.948213 C.3        1 UNL1     0.0372
     60 C         0.645122   5.211527   0.590258 C.2        1 UNL1     -0.0208
     61 C         1.557817   5.646401   1.460096 C.2        1 UNL1     0.0882
     62 H         4.691435   2.732133   0.58101 H        1 UNL1     0.0365
     63 H         6.338224   3.607862   -0.250502 H        1 UNL1     0.0576
     64 H         8.344049   1.489003   -1.24241 H        1 UNL1     0.0615
     65 H         8.277291   4.606449   -1.429316 H        1 UNL1     0.0622
     66 H         -1.428479   5.329295   0.509955 H        1 UNL1     0.0645
     67 H         -1.854503   3.63193   -0.689069 H        1 UNL1     0.0362
     68 H         -2.53736   2.498036   1.06135 H        1 UNL1     0.0741
     69 H         -1.196754   0.518624   2.206378 H        1 UNL1     0.0359
     70 H         0.907514   0.723354   2.93415 H        1 UNL1     0.0600
     71 H         1.799099   -0.406011   1.31109 H        1 UNL1     0.0348
     72 H         3.357506   1.465702   1.300854 H        1 UNL1     0.0602
     73 H         0.763406   5.409022   -0.446203 H        1 UNL1     0.0628
     74 H         1.539869   5.435467   2.529873 H        1 UNL1     0.1022
     75 H         10.957455   2.253136   -3.426994 H        1 UNL1     0.0279
     76 H         10.799944   3.44154   -4.658329 H        1 UNL1     0.0279
     77 H         11.918198   3.662933   -3.252701 H        1 UNL1     0.0279
     78 H         9.068825   4.804829   -5.016358 H        1 UNL1     0.1553
     79 H         7.789876   3.333157   -4.663235 H        1 UNL1     0.1484
     80 H         4.040595   2.730719   -4.8027 H        1 UNL1     0.0317
     81 H         4.775655   4.258414   -5.267199 H        1 UNL1     0.0317
     82 H         6.688036   3.068894   -6.372435 H        1 UNL1     0.0428
     83 H         5.132371   2.59313   -7.016842 H        1 UNL1     0.0428
     84 H         6.909954   -0.044471   -4.19082 H        1 UNL1     0.0428
     85 H         7.820079   1.366482   -4.603138 H        1 UNL1     0.0428
     86 H         6.526916   1.438232   -2.470667 H        1 UNL1     0.0317
     87 H         5.031284   1.211378   -3.254232 H        1 UNL1     0.0317
     88 H         7.268129   0.881936   -7.375962 H        1 UNL1     0.0429
     89 H         6.904137   -0.6058   -6.498244 H        1 UNL1     0.0429
     90 H         4.36365   0.197803   -7.300077 H        1 UNL1     0.0308
     91 H         6.2919   1.049669   -9.538766 H        1 UNL1     0.0233
     92 H         4.522732   0.900776   -9.691643 H        1 UNL1     0.0233
     93 H         5.218485   2.130388   -8.65792 H        1 UNL1     0.0233
     94 H         4.660036   -1.472756   -9.164736 H        1 UNL1     0.0233
     95 H         6.360506   -1.587825   -8.685684 H        1 UNL1     0.0233
     96 H         5.0813   -2.047484   -7.538367 H        1 UNL1     0.0233
     97 H         4.144885   10.521065   -0.087145 H        1 UNL1     0.0280
     98 H         5.75116   11.140717   -0.357514 H        1 UNL1     0.0280
     99 H         4.56519   11.135715   -1.69661 H        1 UNL1     0.0280
     100 H         6.690419   10.721048   -3.008446 H        1 UNL1     0.2922
     101 H         4.699981   0.884362   2.436621 H        1 UNL1     0.0236
     102 H         6.013732   2.123135   2.511202 H        1 UNL1     0.0236
     103 H         6.319164   0.515218   1.930846 H        1 UNL1     0.0236
     104 H         4.331201   -0.559727   1.276327 H        1 UNL1     0.2098
     105 H         0.709714   1.282131   -0.929104 H        1 UNL1     0.0234
     106 H         1.291531   -0.404787   -1.012125 H        1 UNL1     0.0234
     107 H         0.0   -0.0   0.0 H        1 UNL1     0.0234
     108 H         1.198164   3.260049   1.752923 H        1 UNL1     0.2098
     109 H         1.080312   3.04824   -0.849234 H        1 UNL1     0.0234
     110 H         -0.176706   2.335058   -1.90946 H        1 UNL1     0.0234
     111 H         0.077168   4.044928   -1.882321 H        1 UNL1     0.0234
     112 H         -3.568567   -1.529641   1.448033 H        1 UNL1     0.0342
     113 H         -3.198515   0.097286   2.122133 H        1 UNL1     0.0342
     114 H         -4.405626   -0.087662   0.846732 H        1 UNL1     0.0342
     115 H         -2.650606   1.930208   3.324002 H        1 UNL1     0.0234
     116 H         -1.135212   1.93765   4.231918 H        1 UNL1     0.0234
     117 H         -1.646676   3.298811   3.212461 H        1 UNL1     0.0234
     118 H         0.944385   7.68366   -0.769695 H        1 UNL1     0.0309
     119 H         2.215273   7.784859   -2.027735 H        1 UNL1     0.0309
     120 H         1.456968   6.264924   -1.607106 H        1 UNL1     0.0309
     121 H         -0.348477   6.287528   2.812721 H        1 UNL1     0.0524
     122 H         -2.082827   6.031127   2.582189 H        1 UNL1     0.0524
     123 H         -1.268939   5.32652   4.001646 H        1 UNL1     0.0524
@<TRIPOS>BOND
     1     1     2    1
     2     1    42    1
     3     2     3    2
     4     3     4    1
     5     4     5    2
     6     5     7    1
     7     6    75    1
     8     6    76    1
     9     6    77    1
    10     7     9   am
    11     9    10    1
    12    10    11    2
    13    10    43    1
    14    11    14    1
    15    11    15    1
    16    12    13   ar
    17    12    27   ar
    18    12    43    1
    19    13    14    1
    20    13    30   ar
    21    14    17    2
    22    15    16    1
    23    16    17    1
    24    16    18    1
    25    16    22    1
    26    18    19    1
    27    19    20    1
    28    20    21    1
    29    21    22    1
    30    23    24    1
    31    23    88    1
    32    23    89    1
    33    24    25    1
    34    24    26    1
    35    24    90    1
    36    25    91    1
    37    25    92    1
    38    25    93    1
    39    26    94    1
    40    26    95    1
    41    26    96    1
    42    27    28   ar
    43    28    29   ar
    44    29    30   ar
    45    29    31    1
    46    30    33    1
    47    31    32    1
    48    32    33    1
    49    32    35    1
    50    34    97    1
    51    34    98    1
    52    34    99    1
    53    35    61    1
    54    36    37    1
    55    36    60    1
    56    37    38    1
    57    38    39    1
    58    39    40    1
    59    40    41    1
    60    41    42    1
    61    45   100    1
    62    47   101    1
    63    47   102    1
    64    47   103    1
    65    48   104    1
    66    49   105    1
    67    49   106    1
    68    49   107    1
    69    50   108    1
    70    51    59    1
    71    52   109    1
    72    52   110    1
    73    52   111    1
    74    53    54    1
    75    54    55    2
    76    54    56    1
    77    56   112    1
    78    56   113    1
    79    56   114    1
    80    57   115    1
    81    57   116    1
    82    57   117    1
    83    58   118    1
    84    58   119    1
    85    58   120    1
    86    59   121    1
    87    59   122    1
    88    59   123    1
    89    60    61    2
    90     1    47    1
    91     1    62    1
    92     2    63    1
    93     3    64    1
    94     4    65    1
    95     5     6    1
    96     7     8    2
    97     9    78    1
    98    15    79    1
    99    18    80    1
   100    18    81    1
   101    19    82    1
   102    19    83    1
   103    20    23    1
   104    21    84    1
   105    21    85    1
   106    22    86    1
   107    22    87    1
   108    27    45    1
   109    28    34    1
   110    32    58    1
   111    33    46    2
   112    36    51    1
   113    36    66    1
   114    37    52    1
   115    37    67    1
   116    38    53    1
   117    38    68    1
   118    42    48    1
   119    42    72    1
   120    43    44    2
   121    60    73    1
   122    61    74    1
   123    39    69    1
   124    39    57    1
   125    40    70    1
   126    40    50    1
   127    41    71    1
   128    41    49    1
