@<TRIPOS>MOLECULE
*****
 123 128 0 0 0
SMALL
GASTEIGER

@<TRIPOS>ATOM
     1 C         5.165032   1.763355   0.460755 C.3        1 UNL1     0.0009
     2 C         6.594514   2.573167   -0.39821 C.2        1 UNL1     -0.0787
     3 C         7.872782   2.47832   -1.071323 C.2        1 UNL1     -0.0649
     4 C         8.74239   3.71562   -1.832394 C.2        1 UNL1     -0.0542
     5 C         9.756139   4.010779   -2.776995 C.2        1 UNL1     0.0115
     6 C         10.881042   3.388178   -3.648939 C.3        1 UNL1     -0.0348
     7 C         9.843825   5.494083   -3.384538 C.2        1 UNL1     0.2441
     8 O         10.667589   6.318155   -3.01192 O.2        1 UNL1     -0.2702
     9 N         9.086258   5.698549   -4.550915 N.am        1 UNL1     -0.2772
     10 C         7.80431   6.081764   -4.22986 C.2        1 UNL1     0.1049
     11 C         6.962942   5.1081   -3.932705 C.2        1 UNL1     0.0801
     12 C         6.50964   7.685285   -2.812156 C.ar        1 UNL1     0.0753
     13 C         5.756336   6.555416   -2.359899 C.ar        1 UNL1     0.0305
     14 C         5.873165   5.24982   -3.005516 C.2        1 UNL1     0.0924
     15 N         7.088343   3.779414   -4.092058 N.pl3        1 UNL1     -0.3170
     16 C         5.822001   3.176818   -3.770327 C.3        1 UNL1     0.1275
     17 N         5.18863   4.130618   -2.787053 N.2        1 UNL1     -0.2557
     18 C         4.961683   3.233069   -5.029053 C.3        1 UNL1     0.0016
     19 C         5.711915   2.550688   -6.161791 C.3        1 UNL1     0.0026
     20 N         5.98813   1.173479   -5.777044 N.3        1 UNL1     -0.3018
     21 C         6.759101   1.015647   -4.54211 C.3        1 UNL1     0.0026
     22 C         5.984942   1.704387   -3.41685 C.3        1 UNL1     0.0016
     23 C         6.428482   0.354795   -6.889019 C.3        1 UNL1     0.0012
     24 C         5.268065   0.101756   -7.864294 C.3        1 UNL1     -0.0339
     25 C         5.353509   1.024188   -9.091435 C.3        1 UNL1     -0.0615
     26 C         5.235878   -1.36241   -8.266738 C.3        1 UNL1     -0.0615
     27 C         6.304576   8.952593   -2.271788 C.ar        1 UNL1     0.1347
     28 C         5.35035   9.219806   -1.306335 C.ar        1 UNL1     0.0342
     29 C         4.654635   8.083567   -0.841462 C.ar        1 UNL1     0.1435
     30 C         4.874718   6.801979   -1.347737 C.ar        1 UNL1     0.0774
     31 O         3.618296   8.194534   0.018012 O.3        1 UNL1     -0.4436
     32 C         2.899246   6.959658   -0.119546 C.3        1 UNL1     0.3143
     33 C         3.912206   5.969192   -0.657228 C.2        1 UNL1     0.2504
     34 C         4.902267   10.584815   -0.863536 C.3        1 UNL1     -0.0327
     35 O         2.547468   6.522422   1.198911 O.2        1 UNL1     -0.4528
     36 C         -0.692425   4.581067   0.821654 C.3        1 UNL1     0.0854
     37 C         -0.999415   3.319318   -0.073482 C.3        1 UNL1     0.0236
     38 C         -1.591871   2.056887   0.718357 C.3        1 UNL1     0.1131
     39 C         -0.857097   1.528441   2.015709 C.3        1 UNL1     0.0200
     40 C         0.804705   1.387539   2.047285 C.3        1 UNL1     0.0661
     41 C         1.759415   0.620966   0.873188 C.3        1 UNL1     0.0091
     42 C         3.462684   0.988076   0.299158 C.3        1 UNL1     0.0661
     43 C         7.453736   7.479828   -3.938535 C.2        1 UNL1     0.2131
     44 O         7.846937   8.378758   -4.659683 O.2        1 UNL1     -0.2851
     45 O         7.11128   9.989794   -2.735341 O.3        1 UNL1     -0.5056
     46 O         3.932308   4.765754   -0.526131 O.2        1 UNL1     -0.2836
     47 C         5.570931   1.335503   1.896781 C.3        1 UNL1     -0.0566
     48 O         3.915646   -0.421744   0.378826 O.3        1 UNL1     -0.3909
     49 C         0.918696   0.385604   -0.361838 C.3        1 UNL1     -0.0577
     50 O         1.403778   2.607211   2.436177 O.3        1 UNL1     -0.3910
     51 O         -0.807904   4.391553   2.213839 O.3        1 UNL1     -0.3753
     52 C         0.038774   3.161336   -1.231995 C.3        1 UNL1     -0.0564
     53 O         -2.196791   1.015902   -0.177606 O.3        1 UNL1     -0.4608
     54 C         -2.394422   -0.29943   0.152205 C.2        1 UNL1     0.3042
     55 O         -1.748312   -1.271939   -0.235876 O.2        1 UNL1     -0.2512
     56 C         -3.502201   -0.510703   1.144627 C.3        1 UNL1     0.0332
     57 C         -1.572651   2.195886   3.280887 C.3        1 UNL1     -0.0567
     58 C         1.817095   7.201358   -1.197534 C.3        1 UNL1     0.0210
     59 C         -1.120082   5.569953   2.955314 C.3        1 UNL1     0.0372
     60 C         0.633452   5.213763   0.583102 C.2        1 UNL1     -0.0208
     61 C         1.550205   5.651855   1.447037 C.2        1 UNL1     0.0882
     62 H         4.686888   2.746231   0.550441 H        1 UNL1     0.0365
     63 H         6.325949   3.62626   -0.291731 H        1 UNL1     0.0576
     64 H         8.331836   1.512666   -1.294686 H        1 UNL1     0.0615
     65 H         8.254783   4.629785   -1.483074 H        1 UNL1     0.0622
     66 H         -1.440941   5.325406   0.5155 H        1 UNL1     0.0645
     67 H         -1.869359   3.626048   -0.679844 H        1 UNL1     0.0362
     68 H         -2.538095   2.491256   1.075438 H        1 UNL1     0.0741
     69 H         -1.184662   0.516497   2.213391 H        1 UNL1     0.0359
     70 H         0.923438   0.727848   2.928064 H        1 UNL1     0.0600
     71 H         1.808321   -0.399916   1.300231 H        1 UNL1     0.0348
     72 H         3.361138   1.476348   1.279257 H        1 UNL1     0.0602
     73 H         0.744772   5.410955   -0.454189 H        1 UNL1     0.0628
     74 H         1.539464   5.44154   2.517032 H        1 UNL1     0.1022
     75 H         10.877952   2.275291   -3.556712 H        1 UNL1     0.0279
     76 H         10.798928   3.534408   -4.723621 H        1 UNL1     0.0279
     77 H         11.888476   3.633334   -3.281957 H        1 UNL1     0.0279
     78 H         9.02363   4.828236   -5.075043 H        1 UNL1     0.1553
     79 H         7.751202   3.353045   -4.713155 H        1 UNL1     0.1484
     80 H         4.002917   2.739536   -4.829157 H        1 UNL1     0.0317
     81 H         4.730618   4.269087   -5.299104 H        1 UNL1     0.0317
     82 H         6.639638   3.084484   -6.415374 H        1 UNL1     0.0428
     83 H         5.081438   2.603759   -7.049897 H        1 UNL1     0.0428
     84 H         6.884119   -0.026851   -4.233273 H        1 UNL1     0.0428
     85 H         7.787544   1.386505   -4.652048 H        1 UNL1     0.0428
     86 H         6.507331   1.455801   -2.511696 H        1 UNL1     0.0317
     87 H         5.007575   1.224075   -3.285896 H        1 UNL1     0.0317
     88 H         7.219955   0.898606   -7.421123 H        1 UNL1     0.0429
     89 H         6.865741   -0.58964   -6.540275 H        1 UNL1     0.0429
     90 H         4.318607   0.291948   -7.34993 H        1 UNL1     0.0308
     91 H         6.306155   0.901788   -9.615445 H        1 UNL1     0.0233
     92 H         4.534069   0.821354   -9.784967 H        1 UNL1     0.0233
     93 H         5.271844   2.084515   -8.823346 H        1 UNL1     0.0233
     94 H         4.576322   -1.502429   -9.129997 H        1 UNL1     0.0233
     95 H         6.238467   -1.693833   -8.551233 H        1 UNL1     0.0233
     96 H         4.874249   -1.992976   -7.449683 H        1 UNL1     0.0233
     97 H         4.058488   10.53542   -0.181754 H        1 UNL1     0.0280
     98 H         5.692034   11.125349   -0.325625 H        1 UNL1     0.0280
     99 H         4.601818   11.177867   -1.742806 H        1 UNL1     0.0280
     100 H         6.643911   10.767102   -2.986303 H        1 UNL1     0.2922
     101 H         4.689163   1.003942   2.444694 H        1 UNL1     0.0236
     102 H         6.120512   2.107211   2.434751 H        1 UNL1     0.0236
     103 H         6.243654   0.461645   1.893971 H        1 UNL1     0.0236
     104 H         4.25276   -0.572557   1.28358 H        1 UNL1     0.2098
     105 H         0.700215   1.283623   -0.934238 H        1 UNL1     0.0234
     106 H         1.286456   -0.401636   -1.019815 H        1 UNL1     0.0234
     107 H         0.0   -0.0   0.0 H        1 UNL1     0.0234
     108 H         1.253232   3.247508   1.714287 H        1 UNL1     0.2098
     109 H         1.067527   3.063254   -0.858151 H        1 UNL1     0.0234
     110 H         -0.188583   2.325742   -1.902693 H        1 UNL1     0.0234
     111 H         0.044894   4.038701   -1.892405 H        1 UNL1     0.0234
     112 H         -3.593191   -1.575503   1.379716 H        1 UNL1     0.0342
     113 H         -3.359422   0.078345   2.049326 H        1 UNL1     0.0342
     114 H         -4.444251   -0.186375   0.681467 H        1 UNL1     0.0342
     115 H         -2.659888   2.038198   3.26546 H        1 UNL1     0.0234
     116 H         -1.202076   1.834667   4.242263 H        1 UNL1     0.0234
     117 H         -1.517248   3.298082   3.286894 H        1 UNL1     0.0234
     118 H         0.915233   7.681675   -0.779268 H        1 UNL1     0.0309
     119 H         2.178611   7.793935   -2.043916 H        1 UNL1     0.0309
     120 H         1.431957   6.268282   -1.623145 H        1 UNL1     0.0309
     121 H         -0.78638   5.41243   3.980588 H        1 UNL1     0.0524
     122 H         -0.595131   6.459138   2.568255 H        1 UNL1     0.0524
     123 H         -2.190289   5.755113   2.933718 H        1 UNL1     0.0524
@<TRIPOS>BOND
     1     1     2    1
     2     1    42    1
     3     2     3    2
     4     3     4    1
     5     4     5    2
     6     5     7    1
     7     6    75    1
     8     6    76    1
     9     6    77    1
    10     7     9   am
    11     9    10    1
    12    10    11    2
    13    10    43    1
    14    11    14    1
    15    11    15    1
    16    12    13   ar
    17    12    27   ar
    18    12    43    1
    19    13    14    1
    20    13    30   ar
    21    14    17    2
    22    15    16    1
    23    16    17    1
    24    16    18    1
    25    16    22    1
    26    18    19    1
    27    19    20    1
    28    20    21    1
    29    21    22    1
    30    23    24    1
    31    23    88    1
    32    23    89    1
    33    24    25    1
    34    24    26    1
    35    24    90    1
    36    25    91    1
    37    25    92    1
    38    25    93    1
    39    26    94    1
    40    26    95    1
    41    26    96    1
    42    27    28   ar
    43    28    29   ar
    44    29    30   ar
    45    29    31    1
    46    30    33    1
    47    31    32    1
    48    32    33    1
    49    32    35    1
    50    34    97    1
    51    34    98    1
    52    34    99    1
    53    35    61    1
    54    36    37    1
    55    36    60    1
    56    37    38    1
    57    38    39    1
    58    39    40    1
    59    40    41    1
    60    41    42    1
    61    45   100    1
    62    47   101    1
    63    47   102    1
    64    47   103    1
    65    48   104    1
    66    49   105    1
    67    49   106    1
    68    49   107    1
    69    50   108    1
    70    51    59    1
    71    52   109    1
    72    52   110    1
    73    52   111    1
    74    53    54    1
    75    54    55    2
    76    54    56    1
    77    56   112    1
    78    56   113    1
    79    56   114    1
    80    57   115    1
    81    57   116    1
    82    57   117    1
    83    58   118    1
    84    58   119    1
    85    58   120    1
    86    59   121    1
    87    59   122    1
    88    59   123    1
    89    60    61    2
    90     1    47    1
    91     1    62    1
    92     2    63    1
    93     3    64    1
    94     4    65    1
    95     5     6    1
    96     7     8    2
    97     9    78    1
    98    15    79    1
    99    18    80    1
   100    18    81    1
   101    19    82    1
   102    19    83    1
   103    20    23    1
   104    21    84    1
   105    21    85    1
   106    22    86    1
   107    22    87    1
   108    27    45    1
   109    28    34    1
   110    32    58    1
   111    33    46    2
   112    36    51    1
   113    36    66    1
   114    37    52    1
   115    37    67    1
   116    38    53    1
   117    38    68    1
   118    42    48    1
   119    42    72    1
   120    43    44    2
   121    60    73    1
   122    61    74    1
   123    39    69    1
   124    39    57    1
   125    40    70    1
   126    40    50    1
   127    41    71    1
   128    41    49    1
