@<TRIPOS>MOLECULE
*****
 123 128 0 0 0
SMALL
GASTEIGER

@<TRIPOS>ATOM
     1 C         4.330837   2.385682   -2.356192 C.3        1 UNL1     0.0009
     2 C         5.843093   2.137505   -3.399518 C.2        1 UNL1     -0.0787
     3 C         7.278207   1.98544   -3.515144 C.2        1 UNL1     -0.0649
     4 C         8.178355   1.629711   -4.904225 C.2        1 UNL1     -0.0542
     5 C         9.413192   1.136116   -5.392713 C.2        1 UNL1     0.0115
     6 C         10.85543   0.730735   -4.981691 C.3        1 UNL1     -0.0348
     7 C         9.502691   0.637935   -6.916129 C.2        1 UNL1     0.2441
     8 O         10.006444   1.308207   -7.806911 O.2        1 UNL1     -0.2702
     9 N         9.201817   -0.721509   -7.109878 N.am        1 UNL1     -0.2772
     10 C         7.850361   -0.891138   -7.305103 C.2        1 UNL1     0.1049
     11 C         7.107582   -0.949623   -6.214653 C.2        1 UNL1     0.0801
     12 C         5.91218   -0.020329   -8.625135 C.ar        1 UNL1     0.0753
     13 C         5.216255   0.094369   -7.379686 C.ar        1 UNL1     0.0305
     14 C         5.746487   -0.490666   -6.150199 C.2        1 UNL1     0.0924
     15 N         7.471655   -1.08065   -4.927482 N.pl3        1 UNL1     -0.3170
     16 C         6.275713   -1.265891   -4.14924 C.3        1 UNL1     0.1275
     17 N         5.19757   -0.567188   -4.941165 N.2        1 UNL1     -0.2557
     18 C         5.93525   -2.752531   -4.190321 C.3        1 UNL1     0.0016
     19 C         7.136486   -3.540488   -3.692583 C.3        1 UNL1     0.0026
     20 N         7.447818   -3.111555   -2.336073 N.3        1 UNL1     -0.3018
     21 C         7.729329   -1.682457   -2.185077 C.3        1 UNL1     0.0026
     22 C         6.507896   -0.910187   -2.686669 C.3        1 UNL1     0.0016
     23 C         8.375943   -3.998395   -1.663212 C.3        1 UNL1     0.0012
     24 C         7.70037   -5.340329   -1.339841 C.3        1 UNL1     -0.0339
     25 C         7.996303   -6.393653   -2.420114 C.3        1 UNL1     -0.0615
     26 C         8.124558   -5.818261   0.037992 C.3        1 UNL1     -0.0615
     27 C         5.344654   0.433384   -9.813485 C.ar        1 UNL1     0.1347
     28 C         4.076308   0.981015   -9.88731 C.ar        1 UNL1     0.0342
     29 C         3.429677   1.128672   -8.641826 C.ar        1 UNL1     0.1435
     30 C         4.000635   0.711863   -7.438706 C.ar        1 UNL1     0.0774
     31 O         2.146853   1.54394   -8.558624 O.3        1 UNL1     -0.4436
     32 C         1.712628   1.121561   -7.257118 C.3        1 UNL1     0.3143
     33 C         2.982728   0.97663   -6.443452 C.2        1 UNL1     0.2504
     34 C         3.306777   1.256078   -11.149158 C.3        1 UNL1     -0.0327
     35 O         0.970826   2.204881   -6.683185 O.2        1 UNL1     -0.4528
     36 C         -1.593809   0.607834   -4.385322 C.3        1 UNL1     0.0854
     37 C         -1.368774   -0.365251   -3.164672 C.3        1 UNL1     0.0236
     38 C         -2.021561   0.121425   -1.783093 C.3        1 UNL1     0.1131
     39 C         -1.742956   1.586728   -1.256276 C.3        1 UNL1     0.0200
     40 C         -0.205407   2.23018   -1.322232 C.3        1 UNL1     0.0661
     41 C         1.21111   1.477908   -0.769804 C.3        1 UNL1     0.0091
     42 C         2.934823   1.586007   -1.388295 C.3        1 UNL1     0.0661
     43 C         7.221043   -0.71971   -8.623028 C.2        1 UNL1     0.2131
     44 O         7.716873   -1.222913   -9.614833 O.2        1 UNL1     -0.2851
     45 O         6.107119   0.325966   -10.974754 O.3        1 UNL1     -0.5056
     46 O         3.126025   1.078879   -5.245594 O.2        1 UNL1     -0.2836
     47 C         4.24187   3.859784   -1.877559 C.3        1 UNL1     -0.0566
     48 O         3.524711   1.796697   -0.044138 O.3        1 UNL1     -0.3909
     49 C         0.921862   0.014027   -0.523061 C.3        1 UNL1     -0.0577
     50 O         0.028951   2.840935   -2.57514 O.3        1 UNL1     -0.3910
     51 O         -2.18064   1.8529   -4.080576 O.3        1 UNL1     -0.3753
     52 C         0.031565   -1.058446   -3.223672 C.3        1 UNL1     -0.0564
     53 O         -2.101984   -0.958162   -0.743694 O.3        1 UNL1     -0.4608
     54 C         -2.235888   -0.755097   0.604922 C.2        1 UNL1     0.3042
     55 O         -1.402366   -0.982686   1.480869 O.2        1 UNL1     -0.2512
     56 C         -3.546749   -0.131782   0.99201 C.3        1 UNL1     0.0332
     57 C         -2.958451   2.51016   -1.73379 C.3        1 UNL1     -0.0567
     58 C         1.075558   -0.27558   -7.440612 C.3        1 UNL1     0.0210
     59 C         -2.940098   2.432961   -5.140114 C.3        1 UNL1     0.0372
     60 C         -0.37775   0.893067   -5.194645 C.2        1 UNL1     -0.0208
     61 C         0.087719   2.045284   -5.678876 C.2        1 UNL1     0.0882
     62 H         3.717253   2.313285   -3.262274 H        1 UNL1     0.0365
     63 H         5.406124   2.160115   -4.400026 H        1 UNL1     0.0576
     64 H         7.920514   1.927055   -2.633588 H        1 UNL1     0.0615
     65 H         7.471224   1.79325   -5.721968 H        1 UNL1     0.0622
     66 H         -2.277545   0.062262   -5.050832 H        1 UNL1     0.0645
     67 H         -1.991957   -1.244358   -3.404202 H        1 UNL1     0.0362
     68 H         -3.084628   0.111085   -2.06823 H        1 UNL1     0.0741
     69 H         -1.971266   1.625916   -0.199514 H        1 UNL1     0.0359
     70 H         -0.322796   3.077059   -0.619327 H        1 UNL1     0.0600
     71 H         1.24678   1.869628   0.265686 H        1 UNL1     0.0348
     72 H         2.413892   2.46891   -1.786327 H        1 UNL1     0.0602
     73 H         0.074712   -0.023967   -5.48026 H        1 UNL1     0.0628
     74 H         -0.282257   3.029741   -5.390432 H        1 UNL1     0.1022
     75 H         11.002654   0.866179   -3.883049 H        1 UNL1     0.0279
     76 H         11.126288   -0.312553   -5.127479 H        1 UNL1     0.0279
     77 H         11.619964   1.408972   -5.388119 H        1 UNL1     0.0279
     78 H         9.460201   -1.250711   -6.279661 H        1 UNL1     0.1553
     79 H         8.369175   -1.420444   -4.634341 H        1 UNL1     0.1484
     80 H         5.051069   -2.934167   -3.567425 H        1 UNL1     0.0317
     81 H         5.672563   -3.065861   -5.206427 H        1 UNL1     0.0317
     82 H         8.005913   -3.419315   -4.3554 H        1 UNL1     0.0428
     83 H         6.872756   -4.597821   -3.731875 H        1 UNL1     0.0428
     84 H         7.881236   -1.372664   -1.146441 H        1 UNL1     0.0428
     85 H         8.662398   -1.394184   -2.688662 H        1 UNL1     0.0428
     86 H         6.694011   0.118448   -2.439164 H        1 UNL1     0.0317
     87 H         5.629851   -1.162427   -2.07962 H        1 UNL1     0.0317
     88 H         9.220169   -4.186126   -2.339477 H        1 UNL1     0.0429
     89 H         8.78649   -3.533383   -0.757679 H        1 UNL1     0.0429
     90 H         6.615382   -5.192137   -1.284573 H        1 UNL1     0.0308
     91 H         9.072665   -6.549919   -2.538969 H        1 UNL1     0.0233
     92 H         7.520951   -7.345541   -2.172002 H        1 UNL1     0.0233
     93 H         7.606356   -6.104279   -3.403496 H        1 UNL1     0.0233
     94 H         7.802041   -6.853293   0.194605 H        1 UNL1     0.0233
     95 H         9.214278   -5.787903   0.124899 H        1 UNL1     0.0233
     96 H         7.690114   -5.197813   0.826833 H        1 UNL1     0.0233
     97 H         2.316895   1.652878   -10.944427 H        1 UNL1     0.0280
     98 H         3.804251   2.00171   -11.783042 H        1 UNL1     0.0280
     99 H         3.192686   0.321799   -11.722917 H        1 UNL1     0.0280
     100 H         5.68313   -0.129423   -11.680783 H        1 UNL1     0.2922
     101 H         3.328305   4.004744   -1.301328 H        1 UNL1     0.0236
     102 H         4.331785   4.580349   -2.689769 H        1 UNL1     0.0236
     103 H         5.056384   4.118795   -1.180657 H        1 UNL1     0.0236
     104 H         3.615794   2.760344   0.09025 H        1 UNL1     0.2098
     105 H         0.800823   -0.578346   -1.426529 H        1 UNL1     0.0234
     106 H         1.613105   -0.477682   0.161287 H        1 UNL1     0.0234
     107 H         0.0   0.0   0.0 H        1 UNL1     0.0234
     108 H         -0.000777   2.136795   -3.251209 H        1 UNL1     0.2098
     109 H         0.856056   -0.331911   -3.215127 H        1 UNL1     0.0234
     110 H         0.182175   -1.792991   -2.425233 H        1 UNL1     0.0234
     111 H         0.156957   -1.639481   -4.147047 H        1 UNL1     0.0234
     112 H         -3.585551   0.010182   2.076301 H        1 UNL1     0.0342
     113 H         -3.724553   0.806403   0.468523 H        1 UNL1     0.0342
     114 H         -4.351962   -0.825766   0.714192 H        1 UNL1     0.0342
     115 H         -3.921805   2.148796   -1.348365 H        1 UNL1     0.0234
     116 H         -2.860727   3.558023   -1.443129 H        1 UNL1     0.0234
     117 H         -3.137273   2.473903   -2.822206 H        1 UNL1     0.0234
     118 H         0.025819   -0.211681   -7.776724 H        1 UNL1     0.0309
     119 H         1.634385   -0.915256   -8.131068 H        1 UNL1     0.0309
     120 H         1.006089   -0.832724   -6.499937 H        1 UNL1     0.0309
     121 H         -2.260111   2.614873   -5.971908 H        1 UNL1     0.0524
     122 H         -3.734982   1.759868   -5.50225 H        1 UNL1     0.0524
     123 H         -3.390099   3.365981   -4.812904 H        1 UNL1     0.0524
@<TRIPOS>BOND
     1     1     2    1
     2     1    42    1
     3     2     3    2
     4     3     4    1
     5     4     5    2
     6     5     7    1
     7     6    75    1
     8     6    76    1
     9     6    77    1
    10     7     9   am
    11     9    10    1
    12    10    11    2
    13    10    43    1
    14    11    14    1
    15    11    15    1
    16    12    13   ar
    17    12    27   ar
    18    12    43    1
    19    13    14    1
    20    13    30   ar
    21    14    17    2
    22    15    16    1
    23    16    17    1
    24    16    18    1
    25    16    22    1
    26    18    19    1
    27    19    20    1
    28    20    21    1
    29    21    22    1
    30    23    24    1
    31    23    88    1
    32    23    89    1
    33    24    25    1
    34    24    26    1
    35    24    90    1
    36    25    91    1
    37    25    92    1
    38    25    93    1
    39    26    94    1
    40    26    95    1
    41    26    96    1
    42    27    28   ar
    43    28    29   ar
    44    29    30   ar
    45    29    31    1
    46    30    33    1
    47    31    32    1
    48    32    33    1
    49    32    35    1
    50    34    97    1
    51    34    98    1
    52    34    99    1
    53    35    61    1
    54    36    37    1
    55    36    60    1
    56    37    38    1
    57    38    39    1
    58    39    40    1
    59    40    41    1
    60    41    42    1
    61    45   100    1
    62    47   101    1
    63    47   102    1
    64    47   103    1
    65    48   104    1
    66    49   105    1
    67    49   106    1
    68    49   107    1
    69    50   108    1
    70    51    59    1
    71    52   109    1
    72    52   110    1
    73    52   111    1
    74    53    54    1
    75    54    55    2
    76    54    56    1
    77    56   112    1
    78    56   113    1
    79    56   114    1
    80    57   115    1
    81    57   116    1
    82    57   117    1
    83    58   118    1
    84    58   119    1
    85    58   120    1
    86    59   121    1
    87    59   122    1
    88    59   123    1
    89    60    61    2
    90     1    47    1
    91     1    62    1
    92     2    63    1
    93     3    64    1
    94     4    65    1
    95     5     6    1
    96     7     8    2
    97     9    78    1
    98    15    79    1
    99    18    80    1
   100    18    81    1
   101    19    82    1
   102    19    83    1
   103    20    23    1
   104    21    84    1
   105    21    85    1
   106    22    86    1
   107    22    87    1
   108    27    45    1
   109    28    34    1
   110    32    58    1
   111    33    46    2
   112    36    51    1
   113    36    66    1
   114    37    52    1
   115    37    67    1
   116    38    53    1
   117    38    68    1
   118    42    48    1
   119    42    72    1
   120    43    44    2
   121    60    73    1
   122    61    74    1
   123    39    69    1
   124    39    57    1
   125    40    70    1
   126    40    50    1
   127    41    71    1
   128    41    49    1
