@<TRIPOS>MOLECULE
*****
 123 128 0 0 0
SMALL
GASTEIGER

@<TRIPOS>ATOM
     1 C         5.179239   1.710703   0.492634 C.3        1 UNL1     0.0009
     2 C         6.625962   2.496641   -0.359616 C.2        1 UNL1     -0.0787
     3 C         7.908225   2.38111   -1.021811 C.2        1 UNL1     -0.0649
     4 C         8.799922   3.602353   -1.783256 C.2        1 UNL1     -0.0542
     5 C         9.824944   3.87856   -2.721402 C.2        1 UNL1     0.0115
     6 C         10.948576   3.236105   -3.580485 C.3        1 UNL1     -0.0348
     7 C         9.936787   5.356863   -3.337114 C.2        1 UNL1     0.2441
     8 O         10.768207   6.172441   -2.962816 O.2        1 UNL1     -0.2702
     9 N         9.191291   5.564009   -4.510774 N.am        1 UNL1     -0.2772
     10 C         7.911916   5.965775   -4.202381 C.2        1 UNL1     0.1049
     11 C         7.055594   5.00494   -3.906183 C.2        1 UNL1     0.0801
     12 C         6.626946   7.594586   -2.804826 C.ar        1 UNL1     0.0753
     13 C         5.855406   6.477368   -2.351884 C.ar        1 UNL1     0.0305
     14 C         5.960382   5.166446   -2.988685 C.2        1 UNL1     0.0924
     15 N         7.164955   3.67379   -4.056537 N.pl3        1 UNL1     -0.3170
     16 C         5.888344   3.089648   -3.741422 C.3        1 UNL1     0.1275
     17 N         5.259608   4.057574   -2.769036 N.2        1 UNL1     -0.2557
     18 C         5.038917   3.149362   -5.007364 C.3        1 UNL1     0.0016
     19 C         5.789228   2.450399   -6.129893 C.3        1 UNL1     0.0026
     20 N         6.044405   1.0721   -5.734666 N.3        1 UNL1     -0.3018
     21 C         6.803363   0.911828   -4.492625 C.3        1 UNL1     0.0026
     22 C         6.029271   1.617415   -3.377805 C.3        1 UNL1     0.0016
     23 C         6.482932   0.240993   -6.838115 C.3        1 UNL1     0.0012
     24 C         5.327149   -0.002926   -7.821184 C.3        1 UNL1     -0.0339
     25 C         5.365522   0.99248   -8.992402 C.3        1 UNL1     -0.0615
     26 C         5.352946   -1.441103   -8.308791 C.3        1 UNL1     -0.0615
     27 C         6.43409   8.867725   -2.27375 C.ar        1 UNL1     0.1347
     28 C         5.475739   9.153187   -1.31765 C.ar        1 UNL1     0.0342
     29 C         4.761597   8.02893   -0.851592 C.ar        1 UNL1     0.1435
     30 C         4.969013   6.741525   -1.348368 C.ar        1 UNL1     0.0774
     31 O         3.719956   8.158579   -0.001191 O.3        1 UNL1     -0.4436
     32 C         2.986011   6.932317   -0.137128 C.3        1 UNL1     0.3143
     33 C         3.990253   5.925528   -0.66066 C.2        1 UNL1     0.2504
     34 C         5.041943   10.526574   -0.886688 C.3        1 UNL1     -0.0327
     35 O         2.618046   6.507744   1.18105 O.2        1 UNL1     -0.4528
     36 C         -0.643731   4.60631   0.789326 C.3        1 UNL1     0.0854
     37 C         -0.959961   3.343203   -0.100664 C.3        1 UNL1     0.0236
     38 C         -1.575113   2.093425   0.693935 C.3        1 UNL1     0.1131
     39 C         -0.857671   1.56343   2.000324 C.3        1 UNL1     0.0200
     40 C         0.80185   1.401179   2.046155 C.3        1 UNL1     0.0661
     41 C         1.75585   0.615127   0.884425 C.3        1 UNL1     0.0091
     42 C         3.468286   0.956599   0.321964 C.3        1 UNL1     0.0661
     43 C         7.577258   7.370022   -3.922295 C.2        1 UNL1     0.2131
     44 O         7.98788   8.259353   -4.645633 O.2        1 UNL1     -0.2851
     45 O         7.257908   9.891523   -2.736999 O.3        1 UNL1     -0.5056
     46 O         3.993636   4.722753   -0.52218 O.2        1 UNL1     -0.2836
     47 C         5.568045   1.286404   1.934432 C.3        1 UNL1     -0.0566
     48 O         3.902203   -0.458466   0.41375 O.3        1 UNL1     -0.3909
     49 C         0.922033   0.383149   -0.355909 C.3        1 UNL1     -0.0577
     50 O         1.413625   2.615331   2.432537 O.3        1 UNL1     -0.3910
     51 O         -0.772789   4.42682   2.181648 O.3        1 UNL1     -0.3753
     52 C         0.085307   3.164693   -1.249792 C.3        1 UNL1     -0.0564
     53 O         -2.186356   1.05492   -0.200611 O.3        1 UNL1     -0.4608
     54 C         -2.422792   -0.250558   0.142547 C.2        1 UNL1     0.3042
     55 O         -1.859714   -1.252175   -0.297391 O.2        1 UNL1     -0.2512
     56 C         -3.456478   -0.411236   1.220689 C.3        1 UNL1     0.0332
     57 C         -1.574561   2.247817   3.255656 C.3        1 UNL1     -0.0567
     58 C         1.915747   7.181443   -1.225245 C.3        1 UNL1     0.0210
     59 C         -1.10649   5.607605   2.909835 C.3        1 UNL1     0.0372
     60 C         0.692135   5.220285   0.557686 C.2        1 UNL1     -0.0208
     61 C         1.607582   5.651718   1.426344 C.2        1 UNL1     0.0882
     62 H         4.713231   2.700228   0.572554 H        1 UNL1     0.0365
     63 H         6.370289   3.55376   -0.261634 H        1 UNL1     0.0576
     64 H         8.356436   1.408237   -1.235658 H        1 UNL1     0.0615
     65 H         8.321483   4.524884   -1.443379 H        1 UNL1     0.0622
     66 H         -1.380022   5.358411   0.472678 H        1 UNL1     0.0645
     67 H         -1.820964   3.657482   -0.715857 H        1 UNL1     0.0362
     68 H         -2.518423   2.542205   1.040754 H        1 UNL1     0.0741
     69 H         -1.199953   0.557046   2.201431 H        1 UNL1     0.0359
     70 H         0.904942   0.745397   2.931809 H        1 UNL1     0.0600
     71 H         1.788046   -0.403675   1.317971 H        1 UNL1     0.0348
     72 H         3.365278   1.452126   1.298262 H        1 UNL1     0.0602
     73 H         0.814297   5.409675   -0.479838 H        1 UNL1     0.0628
     74 H         1.585553   5.448102   2.497462 H        1 UNL1     0.1022
     75 H         10.981405   2.131432   -3.420316 H        1 UNL1     0.0279
     76 H         10.838143   3.313141   -4.659808 H        1 UNL1     0.0279
     77 H         11.956006   3.532602   -3.253567 H        1 UNL1     0.0279
     78 H         9.121526   4.691395   -5.030154 H        1 UNL1     0.1553
     79 H         7.827148   3.235072   -4.669692 H        1 UNL1     0.1484
     80 H         4.072239   2.669538   -4.812251 H        1 UNL1     0.0317
     81 H         4.823526   4.186621   -5.285487 H        1 UNL1     0.0317
     82 H         6.72582   2.970556   -6.379183 H        1 UNL1     0.0428
     83 H         5.166612   2.506217   -7.02336 H        1 UNL1     0.0428
     84 H         6.912325   -0.130297   -4.176534 H        1 UNL1     0.0428
     85 H         7.837393   1.268635   -4.596485 H        1 UNL1     0.0428
     86 H         6.541129   1.367608   -2.466989 H        1 UNL1     0.0317
     87 H         5.044717   1.15063   -3.25186 H        1 UNL1     0.0317
     88 H         7.285645   0.771231   -7.367071 H        1 UNL1     0.0429
     89 H         6.905056   -0.706885   -6.480188 H        1 UNL1     0.0429
     90 H         4.374277   0.116927   -7.292144 H        1 UNL1     0.0308
     91 H         6.316313   0.936574   -9.530894 H        1 UNL1     0.0233
     92 H         4.54664   0.800357   -9.689632 H        1 UNL1     0.0233
     93 H         5.247962   2.031471   -8.661474 H        1 UNL1     0.0233
     94 H         4.657193   -1.568909   -9.145109 H        1 UNL1     0.0233
     95 H         6.355537   -1.69792   -8.662087 H        1 UNL1     0.0233
     96 H         5.069666   -2.137015   -7.514167 H        1 UNL1     0.0233
     97 H         4.246531   10.489653   -0.14832 H        1 UNL1     0.0280
     98 H         5.859468   11.091271   -0.419755 H        1 UNL1     0.0280
     99 H         4.675954   11.089309   -1.761031 H        1 UNL1     0.0280
     100 H         6.799282   10.64452   -3.06606 H        1 UNL1     0.2922
     101 H         4.699743   0.864857   2.440401 H        1 UNL1     0.0236
     102 H         6.025789   2.090795   2.509245 H        1 UNL1     0.0236
     103 H         6.316038   0.476054   1.940153 H        1 UNL1     0.0236
     104 H         4.318527   -0.583132   1.289023 H        1 UNL1     0.2098
     105 H         0.709721   1.282225   -0.928969 H        1 UNL1     0.0234
     106 H         1.291498   -0.404696   -1.012204 H        1 UNL1     0.0234
     107 H         0.0   -0.0   0.0 H        1 UNL1     0.0234
     108 H         1.223331   3.271115   1.734322 H        1 UNL1     0.2098
     109 H         1.108099   3.043188   -0.866589 H        1 UNL1     0.0234
     110 H         -0.154115   2.335671   -1.924435 H        1 UNL1     0.0234
     111 H         0.116952   4.043038   -1.908166 H        1 UNL1     0.0234
     112 H         -3.593188   -1.472399   1.450015 H        1 UNL1     0.0342
     113 H         -3.204168   0.152909   2.117307 H        1 UNL1     0.0342
     114 H         -4.411566   -0.022996   0.840898 H        1 UNL1     0.0342
     115 H         -2.641524   1.990621   3.306907 H        1 UNL1     0.0234
     116 H         -1.127792   1.988831   4.21762 H        1 UNL1     0.0234
     117 H         -1.623632   3.348263   3.188185 H        1 UNL1     0.0234
     118 H         1.018812   7.680169   -0.818078 H        1 UNL1     0.0309
     119 H         2.29295   7.760178   -2.074354 H        1 UNL1     0.0309
     120 H         1.51858   6.250797   -1.645082 H        1 UNL1     0.0309
     121 H         -0.294611   6.321016   2.771073 H        1 UNL1     0.0524
     122 H         -2.031037   6.08058   2.538966 H        1 UNL1     0.0524
     123 H         -1.226893   5.37727   3.964607 H        1 UNL1     0.0524
@<TRIPOS>BOND
     1     1     2    1
     2     1    42    1
     3     2     3    2
     4     3     4    1
     5     4     5    2
     6     5     7    1
     7     6    75    1
     8     6    76    1
     9     6    77    1
    10     7     9   am
    11     9    10    1
    12    10    11    2
    13    10    43    1
    14    11    14    1
    15    11    15    1
    16    12    13   ar
    17    12    27   ar
    18    12    43    1
    19    13    14    1
    20    13    30   ar
    21    14    17    2
    22    15    16    1
    23    16    17    1
    24    16    18    1
    25    16    22    1
    26    18    19    1
    27    19    20    1
    28    20    21    1
    29    21    22    1
    30    23    24    1
    31    23    88    1
    32    23    89    1
    33    24    25    1
    34    24    26    1
    35    24    90    1
    36    25    91    1
    37    25    92    1
    38    25    93    1
    39    26    94    1
    40    26    95    1
    41    26    96    1
    42    27    28   ar
    43    28    29   ar
    44    29    30   ar
    45    29    31    1
    46    30    33    1
    47    31    32    1
    48    32    33    1
    49    32    35    1
    50    34    97    1
    51    34    98    1
    52    34    99    1
    53    35    61    1
    54    36    37    1
    55    36    60    1
    56    37    38    1
    57    38    39    1
    58    39    40    1
    59    40    41    1
    60    41    42    1
    61    45   100    1
    62    47   101    1
    63    47   102    1
    64    47   103    1
    65    48   104    1
    66    49   105    1
    67    49   106    1
    68    49   107    1
    69    50   108    1
    70    51    59    1
    71    52   109    1
    72    52   110    1
    73    52   111    1
    74    53    54    1
    75    54    55    2
    76    54    56    1
    77    56   112    1
    78    56   113    1
    79    56   114    1
    80    57   115    1
    81    57   116    1
    82    57   117    1
    83    58   118    1
    84    58   119    1
    85    58   120    1
    86    59   121    1
    87    59   122    1
    88    59   123    1
    89    60    61    2
    90     1    47    1
    91     1    62    1
    92     2    63    1
    93     3    64    1
    94     4    65    1
    95     5     6    1
    96     7     8    2
    97     9    78    1
    98    15    79    1
    99    18    80    1
   100    18    81    1
   101    19    82    1
   102    19    83    1
   103    20    23    1
   104    21    84    1
   105    21    85    1
   106    22    86    1
   107    22    87    1
   108    27    45    1
   109    28    34    1
   110    32    58    1
   111    33    46    2
   112    36    51    1
   113    36    66    1
   114    37    52    1
   115    37    67    1
   116    38    53    1
   117    38    68    1
   118    42    48    1
   119    42    72    1
   120    43    44    2
   121    60    73    1
   122    61    74    1
   123    39    69    1
   124    39    57    1
   125    40    70    1
   126    40    50    1
   127    41    71    1
   128    41    49    1
