@<TRIPOS>MOLECULE
*****
 123 128 0 0 0
SMALL
GASTEIGER

@<TRIPOS>ATOM
     1 C         5.219299   1.447885   0.81352 C.3        1 UNL1     0.0009
     2 C         6.756349   2.148642   0.049678 C.2        1 UNL1     -0.0787
     3 C         8.071741   1.960077   -0.524982 C.2        1 UNL1     -0.0649
     4 C         9.071605   3.124332   -1.239922 C.2        1 UNL1     -0.0542
     5 C         10.168379   3.335598   -2.111433 C.2        1 UNL1     0.0115
     6 C         11.312064   2.625727   -2.886927 C.3        1 UNL1     -0.0348
     7 C         10.394442   4.797268   -2.735458 C.2        1 UNL1     0.2441
     8 O         11.239557   5.576232   -2.316506 O.2        1 UNL1     -0.2702
     9 N         9.738663   5.023556   -3.958119 N.am        1 UNL1     -0.2772
     10 C         8.463681   5.492581   -3.739582 C.2        1 UNL1     0.1049
     11 C         7.542594   4.579736   -3.489515 C.2        1 UNL1     0.0801
     12 C         7.173588   7.203459   -2.448888 C.ar        1 UNL1     0.0753
     13 C         6.318878   6.132574   -2.035022 C.ar        1 UNL1     0.0305
     14 C         6.399228   4.808761   -2.648302 C.2        1 UNL1     0.0924
     15 N         7.594482   3.242723   -3.616919 N.pl3        1 UNL1     -0.3170
     16 C         6.272242   2.727117   -3.380097 C.3        1 UNL1     0.1275
     17 N         5.630722   3.739252   -2.462624 N.2        1 UNL1     -0.2557
     18 C         5.511509   2.809936   -4.699994 C.3        1 UNL1     0.0016
     19 C         6.297534   2.058169   -5.762349 C.3        1 UNL1     0.0026
     20 N         6.456688   0.674962   -5.335223 N.3        1 UNL1     -0.3018
     21 C         7.123767   0.495835   -4.043988 C.3        1 UNL1     0.0026
     22 C         6.31488   1.255277   -2.990971 C.3        1 UNL1     0.0016
     23 C         6.924099   -0.193083   -6.397611 C.3        1 UNL1     0.0012
     24 C         5.824286   -0.394157   -7.452001 C.3        1 UNL1     -0.0339
     25 C         5.999235   0.568837   -8.637789 C.3        1 UNL1     -0.0615
     26 C         5.798132   -1.842814   -7.907509 C.3        1 UNL1     -0.0615
     27 C         7.010671   8.492314   -1.946465 C.ar        1 UNL1     0.1347
     28 C         6.00741   8.83894   -1.059128 C.ar        1 UNL1     0.0342
     29 C         5.20869   7.758385   -0.628301 C.ar        1 UNL1     0.1435
     30 C         5.383156   6.455073   -1.095376 C.ar        1 UNL1     0.0774
     31 O         4.1215   7.951953   0.149874 O.3        1 UNL1     -0.4436
     32 C         3.337289   6.761573   -0.020068 C.3        1 UNL1     0.3143
     33 C         4.321724   5.698732   -0.464443 C.2        1 UNL1     0.2504
     34 C         5.615962   10.238328   -0.673668 C.3        1 UNL1     -0.0327
     35 O         2.863017   6.375311   1.275741 O.2        1 UNL1     -0.4528
     36 C         -0.45763   4.631769   0.691399 C.3        1 UNL1     0.0854
     37 C         -0.778086   3.372762   -0.202878 C.3        1 UNL1     0.0236
     38 C         -1.50595   2.166837   0.56374 C.3        1 UNL1     0.1131
     39 C         -0.903045   1.621485   1.92071 C.3        1 UNL1     0.0200
     40 C         0.739664   1.378129   2.077943 C.3        1 UNL1     0.0661
     41 C         1.726868   0.528743   0.990938 C.3        1 UNL1     0.0091
     42 C         3.487423   0.776796   0.538922 C.3        1 UNL1     0.0661
     43 C         8.182454   6.915651   -3.498467 C.2        1 UNL1     0.2131
     44 O         8.683702   7.772773   -4.203329 O.2        1 UNL1     -0.2851
     45 O         7.913457   9.467166   -2.366082 O.3        1 UNL1     -0.5056
     46 O         4.255562   4.499448   -0.312148 O.2        1 UNL1     -0.2836
     47 C         5.491148   1.026338   2.282662 C.3        1 UNL1     -0.0566
     48 O         3.842705   -0.656463   0.675524 O.3        1 UNL1     -0.3909
     49 C         0.96535   0.319867   -0.299006 C.3        1 UNL1     -0.0577
     50 O         1.385133   2.566169   2.489836 O.3        1 UNL1     -0.3910
     51 O         -0.686335   4.479559   2.074134 O.3        1 UNL1     -0.3753
     52 C         0.3298   3.125785   -1.278304 C.3        1 UNL1     -0.0564
     53 O         -2.108823   1.146642   -0.357169 O.3        1 UNL1     -0.4608
     54 C         -2.444688   -0.136274   -0.011841 C.2        1 UNL1     0.3042
     55 O         -1.909335   -1.176654   -0.392426 O.2        1 UNL1     -0.2512
     56 C         -3.56255   -0.216755   0.988469 C.3        1 UNL1     0.0332
     57 C         -1.665181   2.359016   3.117945 C.3        1 UNL1     -0.0567
     58 C         2.354365   7.047103   -1.179319 C.3        1 UNL1     0.0210
     59 C         -0.976213   5.690656   2.770611 C.3        1 UNL1     0.0372
     60 C         0.919704   5.17548   0.541433 C.2        1 UNL1     -0.0208
     61 C         1.796912   5.573995   1.463624 C.2        1 UNL1     0.0882
     62 H         4.799408   2.460306   0.851037 H        1 UNL1     0.0365
     63 H         6.548293   3.218441   0.11833 H        1 UNL1     0.0576
     64 H         8.483493   0.963178   -0.697493 H        1 UNL1     0.0615
     65 H         8.618955   4.074319   -0.94308 H        1 UNL1     0.0622
     66 H         -1.132884   5.414551   0.318129 H        1 UNL1     0.0645
     67 H         -1.580116   3.720036   -0.877199 H        1 UNL1     0.0362
     68 H         -2.446163   2.666779   0.842274 H        1 UNL1     0.0741
     69 H         -1.307917   0.63634   2.110384 H        1 UNL1     0.0359
     70 H         0.751506   0.731271   2.975994 H        1 UNL1     0.0600
     71 H         1.679371   -0.483859   1.437411 H        1 UNL1     0.0348
     72 H         3.34583   1.291242   1.50049 H        1 UNL1     0.0602
     73 H         1.11883   5.343183   -0.487874 H        1 UNL1     0.0628
     74 H         1.694666   5.387635   2.533229 H        1 UNL1     0.1022
     75 H         11.261485   1.520539   -2.735149 H        1 UNL1     0.0279
     76 H         11.291223   2.714532   -3.970785 H        1 UNL1     0.0279
     77 H         12.307876   2.855072   -2.48016 H        1 UNL1     0.0279
     78 H         9.659229   4.147843   -4.470852 H        1 UNL1     0.1553
     79 H         8.272461   2.762768   -4.179877 H        1 UNL1     0.1484
     80 H         4.511239   2.381412   -4.563634 H        1 UNL1     0.0317
     81 H         5.367197   3.852328   -5.00371 H        1 UNL1     0.0317
     82 H         7.273391   2.527654   -5.955217 H        1 UNL1     0.0428
     83 H         5.738282   2.131417   -6.695582 H        1 UNL1     0.0428
     84 H         7.159284   -0.545595   -3.709364 H        1 UNL1     0.0428
     85 H         8.179006   0.799531   -4.083429 H        1 UNL1     0.0428
     86 H         6.752863   0.994029   -2.045504 H        1 UNL1     0.0317
     87 H         5.301974   0.839633   -2.924956 H        1 UNL1     0.0317
     88 H         7.785332   0.288933   -6.878476 H        1 UNL1     0.0429
     89 H         7.273714   -1.155245   -6.001647 H        1 UNL1     0.0429
     90 H         4.846868   -0.207238   -6.991643 H        1 UNL1     0.0308
     91 H         6.981343   0.449946   -9.105156 H        1 UNL1     0.0233
     92 H         5.222576   0.402884   -9.388035 H        1 UNL1     0.0233
     93 H         5.914894   1.620368   -8.337782 H        1 UNL1     0.0233
     94 H         5.154771   -1.950499   -8.787467 H        1 UNL1     0.0233
     95 H         6.805543   -2.165501   -8.184926 H        1 UNL1     0.0233
     96 H         5.420549   -2.501784   -7.120644 H        1 UNL1     0.0233
     97 H         4.767312   10.252083   0.003705 H        1 UNL1     0.0280
     98 H         6.425371   10.765653   -0.152091 H        1 UNL1     0.0280
     99 H         5.345783   10.808236   -1.577716 H        1 UNL1     0.0280
     100 H         7.515723   10.23776   -2.731616 H        1 UNL1     0.2922
     101 H         4.568795   0.667439   2.738856 H        1 UNL1     0.0236
     102 H         5.961301   1.811448   2.873883 H        1 UNL1     0.0236
     103 H         6.185812   0.172206   2.346647 H        1 UNL1     0.0236
     104 H         4.193767   -0.788615   1.577888 H        1 UNL1     0.2098
     105 H         0.846869   1.217325   -0.900956 H        1 UNL1     0.0234
     106 H         1.329344   -0.502596   -0.914627 H        1 UNL1     0.0234
     107 H         0.0   -0.0   0.0 H        1 UNL1     0.0234
     108 H         1.289377   3.214389   1.765675 H        1 UNL1     0.2098
     109 H         1.320159   2.971861   -0.827517 H        1 UNL1     0.0234
     110 H         0.099329   2.291842   -1.949993 H        1 UNL1     0.0234
     111 H         0.439978   3.986776   -1.950986 H        1 UNL1     0.0234
     112 H         -3.766045   -1.263071   1.235772 H        1 UNL1     0.0342
     113 H         -3.351616   0.362925   1.885866 H        1 UNL1     0.0342
     114 H         -4.467133   0.202195   0.526543 H        1 UNL1     0.0342
     115 H         -2.748076   2.175785   3.08707 H        1 UNL1     0.0234
     116 H         -1.31217   2.07433   4.111115 H        1 UNL1     0.0234
     117 H         -1.633249   3.459924   3.047779 H        1 UNL1     0.0234
     118 H         1.458208   7.594165   -0.837806 H        1 UNL1     0.0309
     119 H         2.814522   7.595164   -2.007623 H        1 UNL1     0.0309
     120 H         1.940392   6.131037   -1.614701 H        1 UNL1     0.0309
     121 H         -0.10651   6.340562   2.677893 H        1 UNL1     0.0524
     122 H         -1.838111   6.225798   2.338418 H        1 UNL1     0.0524
     123 H         -1.179007   5.482918   3.817422 H        1 UNL1     0.0524
@<TRIPOS>BOND
     1     1     2    1
     2     1    42    1
     3     2     3    2
     4     3     4    1
     5     4     5    2
     6     5     7    1
     7     6    75    1
     8     6    76    1
     9     6    77    1
    10     7     9   am
    11     9    10    1
    12    10    11    2
    13    10    43    1
    14    11    14    1
    15    11    15    1
    16    12    13   ar
    17    12    27   ar
    18    12    43    1
    19    13    14    1
    20    13    30   ar
    21    14    17    2
    22    15    16    1
    23    16    17    1
    24    16    18    1
    25    16    22    1
    26    18    19    1
    27    19    20    1
    28    20    21    1
    29    21    22    1
    30    23    24    1
    31    23    88    1
    32    23    89    1
    33    24    25    1
    34    24    26    1
    35    24    90    1
    36    25    91    1
    37    25    92    1
    38    25    93    1
    39    26    94    1
    40    26    95    1
    41    26    96    1
    42    27    28   ar
    43    28    29   ar
    44    29    30   ar
    45    29    31    1
    46    30    33    1
    47    31    32    1
    48    32    33    1
    49    32    35    1
    50    34    97    1
    51    34    98    1
    52    34    99    1
    53    35    61    1
    54    36    37    1
    55    36    60    1
    56    37    38    1
    57    38    39    1
    58    39    40    1
    59    40    41    1
    60    41    42    1
    61    45   100    1
    62    47   101    1
    63    47   102    1
    64    47   103    1
    65    48   104    1
    66    49   105    1
    67    49   106    1
    68    49   107    1
    69    50   108    1
    70    51    59    1
    71    52   109    1
    72    52   110    1
    73    52   111    1
    74    53    54    1
    75    54    55    2
    76    54    56    1
    77    56   112    1
    78    56   113    1
    79    56   114    1
    80    57   115    1
    81    57   116    1
    82    57   117    1
    83    58   118    1
    84    58   119    1
    85    58   120    1
    86    59   121    1
    87    59   122    1
    88    59   123    1
    89    60    61    2
    90     1    47    1
    91     1    62    1
    92     2    63    1
    93     3    64    1
    94     4    65    1
    95     5     6    1
    96     7     8    2
    97     9    78    1
    98    15    79    1
    99    18    80    1
   100    18    81    1
   101    19    82    1
   102    19    83    1
   103    20    23    1
   104    21    84    1
   105    21    85    1
   106    22    86    1
   107    22    87    1
   108    27    45    1
   109    28    34    1
   110    32    58    1
   111    33    46    2
   112    36    51    1
   113    36    66    1
   114    37    52    1
   115    37    67    1
   116    38    53    1
   117    38    68    1
   118    42    48    1
   119    42    72    1
   120    43    44    2
   121    60    73    1
   122    61    74    1
   123    39    69    1
   124    39    57    1
   125    40    70    1
   126    40    50    1
   127    41    71    1
   128    41    49    1
