@<TRIPOS>MOLECULE
*****
 123 128 0 0 0
SMALL
GASTEIGER

@<TRIPOS>ATOM
     1 C         5.31366   1.143221   0.502102 C.3        1 UNL1     0.0009
     2 C         6.878969   1.61245   -0.373496 C.2        1 UNL1     -0.0787
     3 C         8.141488   1.23936   -0.975904 C.2        1 UNL1     -0.0649
     4 C         9.22248   2.228653   -1.82391 C.2        1 UNL1     -0.0542
     5 C         10.295466   2.250409   -2.748736 C.2        1 UNL1     0.0115
     6 C         11.32519   1.362286   -3.499889 C.3        1 UNL1     -0.0348
     7 C         10.641884   3.62362   -3.504564 C.2        1 UNL1     0.2441
     8 O         11.579879   4.340873   -3.184813 O.2        1 UNL1     -0.2702
     9 N         9.959218   3.816344   -4.718226 N.am        1 UNL1     -0.2772
     10 C         8.749763   4.433754   -4.496089 C.2        1 UNL1     0.1049
     11 C         7.752184   3.64698   -4.135472 C.2        1 UNL1     0.0801
     12 C         7.699626   6.371779   -3.313463 C.ar        1 UNL1     0.0753
     13 C         6.759107   5.434881   -2.778435 C.ar        1 UNL1     0.0305
     14 C         6.676548   4.063971   -3.277275 C.2        1 UNL1     0.0924
     15 N         7.661485   2.306035   -4.148416 N.pl3        1 UNL1     -0.3170
     16 C         6.305255   1.95418   -3.821164 C.3        1 UNL1     0.1275
     17 N         5.811742   3.100531   -2.972608 N.2        1 UNL1     -0.2557
     18 C         5.499325   2.007794   -5.1155 C.3        1 UNL1     0.0016
     19 C         6.156641   1.092271   -6.135961 C.3        1 UNL1     0.0026
     20 N         6.192352   -0.260078   -5.596606 N.3        1 UNL1     -0.3018
     21 C         6.894101   -0.401607   -4.319152 C.3        1 UNL1     0.0026
     22 C         6.214436   0.523166   -3.307844 C.3        1 UNL1     0.0016
     23 C         6.521151   -1.257198   -6.595749 C.3        1 UNL1     0.0012
     24 C         5.360985   -1.427242   -7.589155 C.3        1 UNL1     -0.0339
     25 C         5.613498   -0.644215   -8.888064 C.3        1 UNL1     -0.0615
     26 C         5.121707   -2.901884   -7.862938 C.3        1 UNL1     -0.0615
     27 C         7.691656   7.707626   -2.919043 C.ar        1 UNL1     0.1347
     28 C         6.769311   8.230168   -2.030066 C.ar        1 UNL1     0.0342
     29 C         5.884197   7.279173   -1.479298 C.ar        1 UNL1     0.1435
     30 C         5.903731   5.930693   -1.837682 C.ar        1 UNL1     0.0774
     31 O         4.857975   7.649901   -0.682783 O.3        1 UNL1     -0.4436
     32 C         3.949479   6.53903   -0.721157 C.3        1 UNL1     0.3143
     33 C         4.799522   5.345216   -1.106446 C.2        1 UNL1     0.2504
     34 C         6.540353   9.690041   -1.75357 C.3        1 UNL1     -0.0327
     35 O         3.496011   6.313102   0.619207 O.2        1 UNL1     -0.4528
     36 C         -0.008006   4.887677   0.305975 C.3        1 UNL1     0.0854
     37 C         -0.494689   3.600147   -0.464044 C.3        1 UNL1     0.0236
     38 C         -1.307344   2.545103   0.429386 C.3        1 UNL1     0.1131
     39 C         -0.703886   2.052841   1.806261 C.3        1 UNL1     0.0200
     40 C         0.910694   1.651212   1.925688 C.3        1 UNL1     0.0661
     41 C         1.756872   0.615679   0.882009 C.3        1 UNL1     0.0091
     42 C         3.511829   0.638384   0.348144 C.3        1 UNL1     0.0661
     43 C         8.626374   5.893564   -4.36926 C.2        1 UNL1     0.2131
     44 O         9.18091   6.63196   -5.162984 O.2        1 UNL1     -0.2851
     45 O         8.669883   8.543808   -3.453186 O.3        1 UNL1     -0.5056
     46 O         4.617954   4.176271   -0.848658 O.2        1 UNL1     -0.2836
     47 C         5.605735   0.817842   1.991666 C.3        1 UNL1     -0.0566
     48 O         3.724481   -0.808213   0.595634 O.3        1 UNL1     -0.3909
     49 C         0.921678   0.382777   -0.357226 C.3        1 UNL1     -0.0577
     50 O         1.691776   2.794349   2.210068 O.3        1 UNL1     -0.3910
     51 O         -0.189672   4.874931   1.703926 O.3        1 UNL1     -0.3753
     52 C         0.533492   3.149811   -1.552617 C.3        1 UNL1     -0.0564
     53 O         -2.051461   1.521854   -0.377818 O.3        1 UNL1     -0.4608
     54 C         -2.50106   0.314411   0.088949 C.2        1 UNL1     0.3042
     55 O         -2.09119   -0.804419   -0.217751 O.2        1 UNL1     -0.2512
     56 C         -3.577412   0.435065   1.129921 C.3        1 UNL1     0.0332
     57 C         -1.332949   2.962848   2.961398 C.3        1 UNL1     -0.0567
     58 C         2.950562   6.830224   -1.865229 C.3        1 UNL1     0.0210
     59 C         -0.323174   6.163116   2.302777 C.3        1 UNL1     0.0372
     60 C         1.409689   5.268725   0.060814 C.2        1 UNL1     -0.0208
     61 C         2.362962   5.647039   0.913395 C.2        1 UNL1     0.0882
     62 H         5.001499   2.193941   0.466685 H        1 UNL1     0.0365
     63 H         6.784566   2.700234   -0.390384 H        1 UNL1     0.0576
     64 H         8.441175   0.193757   -1.075945 H        1 UNL1     0.0615
     65 H         8.882855   3.242331   -1.594573 H        1 UNL1     0.0622
     66 H         -0.615583   5.703934   -0.109504 H        1 UNL1     0.0645
     67 H         -1.286075   3.973394   -1.137063 H        1 UNL1     0.0362
     68 H         -2.178299   3.162753   0.696723 H        1 UNL1     0.0741
     69 H         -1.19852   1.134944   2.094725 H        1 UNL1     0.0359
     70 H         0.89609   1.082938   2.875378 H        1 UNL1     0.0600
     71 H         1.625945   -0.345993   1.415865 H        1 UNL1     0.0348
     72 H         3.466226   1.242385   1.265978 H        1 UNL1     0.0602
     73 H         1.579178   5.329072   -0.985551 H        1 UNL1     0.0628
     74 H         2.289627   5.561296   1.998064 H        1 UNL1     0.1022
     75 H         11.168702   0.284902   -3.251313 H        1 UNL1     0.0279
     76 H         11.265605   1.363173   -4.585945 H        1 UNL1     0.0279
     77 H         12.356241   1.517957   -3.15003 H        1 UNL1     0.0279
     78 H         9.768106   2.914653   -5.150091 H        1 UNL1     0.1553
     79 H         8.261295   1.712437   -4.691372 H        1 UNL1     0.1484
     80 H         4.467517   1.699968   -4.907213 H        1 UNL1     0.0317
     81 H         5.448996   3.031002   -5.503009 H        1 UNL1     0.0317
     82 H         7.165873   1.438611   -6.40319 H        1 UNL1     0.0428
     83 H         5.567066   1.146994   -7.051635 H        1 UNL1     0.0428
     84 H         6.837778   -1.409829   -3.897101 H        1 UNL1     0.0428
     85 H         7.972067   -0.2153   -4.422087 H        1 UNL1     0.0428
     86 H         6.664825   0.295947   -2.359419 H        1 UNL1     0.0317
     87 H         5.168276   0.223639   -3.17026 H        1 UNL1     0.0317
     88 H         7.405012   -0.910072   -7.146737 H        1 UNL1     0.0429
     89 H         6.787787   -2.21497   -6.130614 H        1 UNL1     0.0429
     90 H         4.437672   -1.054108   -7.130378 H        1 UNL1     0.0308
     91 H         6.550281   -0.951926   -9.362249 H        1 UNL1     0.0233
     92 H         4.790768   -0.788525   -9.592265 H        1 UNL1     0.0233
     93 H         5.683594   0.436845   -8.717089 H        1 UNL1     0.0233
     94 H         4.433316   -3.022604   -8.706371 H        1 UNL1     0.0233
     95 H         6.064198   -3.391108   -8.124344 H        1 UNL1     0.0233
     96 H         4.692574   -3.404967   -6.991892 H        1 UNL1     0.0233
     97 H         5.728353   9.849086   -1.050299 H        1 UNL1     0.0280
     98 H         7.421689   10.170148   -1.308598 H        1 UNL1     0.0280
     99 H         6.290098   10.208836   -2.693421 H        1 UNL1     0.0280
     100 H         8.337198   9.319327   -3.869736 H        1 UNL1     0.2922
     101 H         4.672625   0.597143   2.509598 H        1 UNL1     0.0236
     102 H         6.179349   1.594966   2.495678 H        1 UNL1     0.0236
     103 H         6.211626   -0.096659   2.104705 H        1 UNL1     0.0236
     104 H         4.094494   -0.902284   1.495196 H        1 UNL1     0.2098
     105 H         0.708822   1.28141   -0.930779 H        1 UNL1     0.0234
     106 H         1.290354   -0.405631   -1.013288 H        1 UNL1     0.0234
     107 H         0.0   -0.0   0.0 H        1 UNL1     0.0234
     108 H         1.63082   3.387162   1.43636 H        1 UNL1     0.2098
     109 H         1.521905   2.929869   -1.12556 H        1 UNL1     0.0234
     110 H         0.189519   2.292359   -2.141007 H        1 UNL1     0.0234
     111 H         0.70121   3.93598   -2.300785 H        1 UNL1     0.0234
     112 H         -3.875569   -0.559945   1.474021 H        1 UNL1     0.0342
     113 H         -3.270309   1.061789   1.965833 H        1 UNL1     0.0342
     114 H         -4.453611   0.90698   0.664371 H        1 UNL1     0.0342
     115 H         -2.429199   2.893046   2.984876 H        1 UNL1     0.0234
     116 H         -0.967289   2.725304   3.962355 H        1 UNL1     0.0234
     117 H         -1.191819   4.044685   2.795107 H        1 UNL1     0.0234
     118 H         2.13099   7.49511   -1.540828 H        1 UNL1     0.0309
     119 H         3.427219   7.25651   -2.753643 H        1 UNL1     0.0309
     120 H         2.42629   5.930236   -2.204739 H        1 UNL1     0.0309
     121 H         0.617156   6.693848   2.156282 H        1 UNL1     0.0524
     122 H         -1.119746   6.76289   1.831839 H        1 UNL1     0.0524
     123 H         -0.536515   6.064271   3.363347 H        1 UNL1     0.0524
@<TRIPOS>BOND
     1     1     2    1
     2     1    42    1
     3     2     3    2
     4     3     4    1
     5     4     5    2
     6     5     7    1
     7     6    75    1
     8     6    76    1
     9     6    77    1
    10     7     9   am
    11     9    10    1
    12    10    11    2
    13    10    43    1
    14    11    14    1
    15    11    15    1
    16    12    13   ar
    17    12    27   ar
    18    12    43    1
    19    13    14    1
    20    13    30   ar
    21    14    17    2
    22    15    16    1
    23    16    17    1
    24    16    18    1
    25    16    22    1
    26    18    19    1
    27    19    20    1
    28    20    21    1
    29    21    22    1
    30    23    24    1
    31    23    88    1
    32    23    89    1
    33    24    25    1
    34    24    26    1
    35    24    90    1
    36    25    91    1
    37    25    92    1
    38    25    93    1
    39    26    94    1
    40    26    95    1
    41    26    96    1
    42    27    28   ar
    43    28    29   ar
    44    29    30   ar
    45    29    31    1
    46    30    33    1
    47    31    32    1
    48    32    33    1
    49    32    35    1
    50    34    97    1
    51    34    98    1
    52    34    99    1
    53    35    61    1
    54    36    37    1
    55    36    60    1
    56    37    38    1
    57    38    39    1
    58    39    40    1
    59    40    41    1
    60    41    42    1
    61    45   100    1
    62    47   101    1
    63    47   102    1
    64    47   103    1
    65    48   104    1
    66    49   105    1
    67    49   106    1
    68    49   107    1
    69    50   108    1
    70    51    59    1
    71    52   109    1
    72    52   110    1
    73    52   111    1
    74    53    54    1
    75    54    55    2
    76    54    56    1
    77    56   112    1
    78    56   113    1
    79    56   114    1
    80    57   115    1
    81    57   116    1
    82    57   117    1
    83    58   118    1
    84    58   119    1
    85    58   120    1
    86    59   121    1
    87    59   122    1
    88    59   123    1
    89    60    61    2
    90     1    47    1
    91     1    62    1
    92     2    63    1
    93     3    64    1
    94     4    65    1
    95     5     6    1
    96     7     8    2
    97     9    78    1
    98    15    79    1
    99    18    80    1
   100    18    81    1
   101    19    82    1
   102    19    83    1
   103    20    23    1
   104    21    84    1
   105    21    85    1
   106    22    86    1
   107    22    87    1
   108    27    45    1
   109    28    34    1
   110    32    58    1
   111    33    46    2
   112    36    51    1
   113    36    66    1
   114    37    52    1
   115    37    67    1
   116    38    53    1
   117    38    68    1
   118    42    48    1
   119    42    72    1
   120    43    44    2
   121    60    73    1
   122    61    74    1
   123    39    69    1
   124    39    57    1
   125    40    70    1
   126    40    50    1
   127    41    71    1
   128    41    49    1
