@<TRIPOS>MOLECULE
*****
 123 128 0 0 0
SMALL
GASTEIGER

@<TRIPOS>ATOM
     1 C         1.73973   -0.86168   5.025667 C.3        1 UNL1     0.0009
     2 C         2.116832   -2.202536   6.249161 C.2        1 UNL1     -0.0787
     3 C         1.807302   -2.90751   7.475232 C.2        1 UNL1     -0.0649
     4 C         2.545834   -4.302046   8.088581 C.2        1 UNL1     -0.0542
     5 C         2.402079   -5.397938   8.974826 C.2        1 UNL1     0.0115
     6 C         1.526518   -5.98459   10.116122 C.3        1 UNL1     -0.0348
     7 C         3.35579   -6.676061   8.790908 C.2        1 UNL1     0.2441
     8 O         4.326788   -6.889838   9.503641 O.2        1 UNL1     -0.2702
     9 N         2.853438   -7.666655   7.929214 N.am        1 UNL1     -0.2772
     10 C         3.225101   -7.406571   6.630158 C.2        1 UNL1     0.1049
     11 C         2.472675   -6.544229   5.971034 C.2        1 UNL1     0.0801
     12 C         5.201353   -6.825913   5.210793 C.ar        1 UNL1     0.0753
     13 C         4.404896   -5.764988   4.673481 C.ar        1 UNL1     0.0305
     14 C         2.971524   -5.672873   4.941828 C.2        1 UNL1     0.0924
     15 N         1.272669   -6.027379   6.286277 N.pl3        1 UNL1     -0.3170
     16 C         0.808383   -5.27165   5.153331 C.3        1 UNL1     0.1275
     17 N         2.069349   -4.826167   4.453878 N.2        1 UNL1     -0.2557
     18 C         0.122522   -6.251746   4.206384 C.3        1 UNL1     0.0016
     19 C         -0.974314   -6.977874   4.968801 C.3        1 UNL1     0.0026
     20 N         -1.9192   -5.99414   5.479179 N.3        1 UNL1     -0.3018
     21 C         -1.340402   -4.97054   6.351879 C.3        1 UNL1     0.0026
     22 C         -0.24429   -4.250635   5.564371 C.3        1 UNL1     0.0016
     23 C         -3.150231   -6.590349   5.95849 C.3        1 UNL1     0.0012
     24 C         -3.007584   -7.011625   7.429522 C.3        1 UNL1     -0.0339
     25 C         -2.641712   -8.499695   7.555393 C.3        1 UNL1     -0.0615
     26 C         -1.991854   -6.125139   8.128962 C.3        1 UNL1     -0.0615
     27 C         6.539309   -6.976007   4.853774 C.ar        1 UNL1     0.1347
     28 C         7.177391   -6.154368   3.941738 C.ar        1 UNL1     0.0342
     29 C         6.387478   -5.087562   3.463066 C.ar        1 UNL1     0.1435
     30 C         5.056479   -4.903324   3.839521 C.ar        1 UNL1     0.0774
     31 O         6.830098   -4.265883   2.486368 O.3        1 UNL1     -0.4436
     32 C         5.641738   -3.659312   1.956515 C.3        1 UNL1     0.3143
     33 C         4.616385   -3.759915   3.067706 C.2        1 UNL1     0.2504
     34 C         8.524932   -6.402778   3.323249 C.3        1 UNL1     -0.0327
     35 O         5.920866   -2.266102   1.771296 O.2        1 UNL1     -0.4528
     36 C         3.770845   -1.153736   -1.152425 C.3        1 UNL1     0.0854
     37 C         2.205491   -1.236866   -1.32643 C.3        1 UNL1     0.0236
     38 C         1.487612   0.157678   -1.660558 C.3        1 UNL1     0.1131
     39 C         1.780422   1.426478   -0.762405 C.3        1 UNL1     0.0200
     40 C         1.833269   1.291314   0.899333 C.3        1 UNL1     0.0661
     41 C         0.662657   0.543731   1.87319 C.3        1 UNL1     0.0091
     42 C         0.837048   -0.369469   3.454663 C.3        1 UNL1     0.0661
     43 C         4.531341   -7.814388   6.09185 C.2        1 UNL1     0.2131
     44 O         4.958238   -8.937395   6.290221 O.2        1 UNL1     -0.2851
     45 O         7.256175   -8.007304   5.457071 O.3        1 UNL1     -0.5056
     46 O         3.663552   -3.044009   3.280875 O.2        1 UNL1     -0.2836
     47 C         2.15903   0.520667   5.594251 C.3        1 UNL1     -0.0566
     48 O         -0.277157   0.345996   4.122327 O.3        1 UNL1     -0.3909
     49 C         -0.256891   -0.271829   0.991834 C.3        1 UNL1     -0.0577
     50 O         3.127776   0.923378   1.331304 O.3        1 UNL1     -0.3910
     51 O         4.320944   0.144183   -1.137309 O.3        1 UNL1     -0.3753
     52 C         1.568005   -2.289868   -0.362196 C.3        1 UNL1     -0.0564
     53 O         0.081434   0.004284   -2.162016 O.3        1 UNL1     -0.4608
     54 C         -0.883901   0.976479   -2.132081 C.2        1 UNL1     0.3042
     55 O         -1.104213   1.782678   -1.229117 O.2        1 UNL1     -0.2512
     56 C         -1.697428   1.055209   -3.392513 C.3        1 UNL1     0.0332
     57 C         2.936509   2.268112   -1.478848 C.3        1 UNL1     -0.0567
     58 C         5.186355   -4.547844   0.775554 C.3        1 UNL1     0.0210
     59 C         5.713432   0.208589   -1.441767 C.3        1 UNL1     0.0372
     60 C         4.309446   -1.862133   0.040573 C.2        1 UNL1     -0.0208
     61 C         5.215973   -1.475665   0.939237 C.2        1 UNL1     0.0882
     62 H         2.576568   -1.213967   4.410601 H        1 UNL1     0.0365
     63 H         3.041752   -2.605336   5.831137 H        1 UNL1     0.0576
     64 H         0.913979   -2.675123   8.05925 H        1 UNL1     0.0615
     65 H         3.458041   -4.397141   7.493334 H        1 UNL1     0.0622
     66 H         4.174265   -1.68502   -2.025945 H        1 UNL1     0.0645
     67 H         2.069913   -1.786152   -2.274304 H        1 UNL1     0.0362
     68 H         1.95299   0.375552   -2.633942 H        1 UNL1     0.0741
     69 H         0.992175   2.151296   -0.916398 H        1 UNL1     0.0359
     70 H         1.740593   2.357828   1.180439 H        1 UNL1     0.0600
     71 H         0.021154   1.415653   2.108097 H        1 UNL1     0.0348
     72 H         1.750741   0.233518   3.350325 H        1 UNL1     0.0602
     73 H         3.949535   -2.860976   0.045668 H        1 UNL1     0.0628
     74 H         5.591147   -0.45645   1.03763 H        1 UNL1     0.1022
     75 H         0.762067   -5.240319   10.445832 H        1 UNL1     0.0279
     76 H         0.917604   -6.85002   9.864481 H        1 UNL1     0.0279
     77 H         2.090933   -6.142454   11.046829 H        1 UNL1     0.0279
     78 H         1.836116   -7.665419   7.962873 H        1 UNL1     0.1553
     79 H         0.650531   -6.434472   6.960185 H        1 UNL1     0.1484
     80 H         -0.283352   -5.697983   3.351177 H        1 UNL1     0.0317
     81 H         0.841183   -6.971993   3.800894 H        1 UNL1     0.0317
     82 H         -0.564984   -7.593331   5.783401 H        1 UNL1     0.0428
     83 H         -1.449063   -7.672847   4.275494 H        1 UNL1     0.0428
     84 H         -2.054423   -4.199101   6.656621 H        1 UNL1     0.0428
     85 H         -0.985577   -5.395555   7.300972 H        1 UNL1     0.0428
     86 H         0.062987   -3.427352   6.18225 H        1 UNL1     0.0317
     87 H         -0.676431   -3.759669   4.683858 H        1 UNL1     0.0317
     88 H         -3.945395   -5.836829   5.886277 H        1 UNL1     0.0429
     89 H         -3.453095   -7.438642   5.331237 H        1 UNL1     0.0429
     90 H         -3.959716   -6.841257   7.945886 H        1 UNL1     0.0308
     91 H         -2.509731   -8.78966   8.602104 H        1 UNL1     0.0233
     92 H         -3.414105   -9.12691   7.10415 H        1 UNL1     0.0233
     93 H         -1.706942   -8.745225   7.036979 H        1 UNL1     0.0233
     94 H         -1.393729   -6.716798   8.830405 H        1 UNL1     0.0233
     95 H         -1.311945   -5.684492   7.394444 H        1 UNL1     0.0233
     96 H         -2.480582   -5.320206   8.685016 H        1 UNL1     0.0233
     97 H         9.331045   -6.282382   4.040826 H        1 UNL1     0.0280
     98 H         8.619441   -7.424848   2.933768 H        1 UNL1     0.0280
     99 H         8.688589   -5.691559   2.497127 H        1 UNL1     0.0280
     100 H         7.206465   -8.833167   5.008628 H        1 UNL1     0.2922
     101 H         1.444652   0.837899   6.353648 H        1 UNL1     0.0236
     102 H         2.298629   1.277072   4.822664 H        1 UNL1     0.0236
     103 H         3.126489   0.475359   6.121664 H        1 UNL1     0.0236
     104 H         0.097038   1.14104   4.549941 H        1 UNL1     0.2098
     105 H         -0.130965   -1.347578   1.085205 H        1 UNL1     0.0234
     106 H         -1.311582   -0.007106   1.065835 H        1 UNL1     0.0234
     107 H         0.0   0.0   0.0 H        1 UNL1     0.0234
     108 H         3.041962   0.572182   2.238534 H        1 UNL1     0.2098
     109 H         1.765365   -2.059768   0.694126 H        1 UNL1     0.0234
     110 H         0.490725   -2.416326   -0.514577 H        1 UNL1     0.0234
     111 H         1.980218   -3.293836   -0.529749 H        1 UNL1     0.0234
     112 H         -1.183565   1.680818   -4.128654 H        1 UNL1     0.0342
     113 H         -1.915484   0.069775   -3.801433 H        1 UNL1     0.0342
     114 H         -2.65599   1.535656   -3.15273 H        1 UNL1     0.0342
     115 H         2.695092   2.481718   -2.529219 H        1 UNL1     0.0234
     116 H         3.158767   3.220188   -0.992841 H        1 UNL1     0.0234
     117 H         3.883396   1.711601   -1.58675 H        1 UNL1     0.0234
     118 H         4.086644   -4.624836   0.714623 H        1 UNL1     0.0309
     119 H         5.575889   -4.211284   -0.190465 H        1 UNL1     0.0309
     120 H         5.506774   -5.589657   0.885392 H        1 UNL1     0.0309
     121 H         5.930036   1.220838   -1.782049 H        1 UNL1     0.0524
     122 H         6.344248   0.013125   -0.558646 H        1 UNL1     0.0524
     123 H         5.961943   -0.509163   -2.218405 H        1 UNL1     0.0524
@<TRIPOS>BOND
     1     1     2    1
     2     1    42    1
     3     2     3    2
     4     3     4    1
     5     4     5    2
     6     5     7    1
     7     6    75    1
     8     6    76    1
     9     6    77    1
    10     7     9   am
    11     9    10    1
    12    10    11    2
    13    10    43    1
    14    11    14    1
    15    11    15    1
    16    12    13   ar
    17    12    27   ar
    18    12    43    1
    19    13    14    1
    20    13    30   ar
    21    14    17    2
    22    15    16    1
    23    16    17    1
    24    16    18    1
    25    16    22    1
    26    18    19    1
    27    19    20    1
    28    20    21    1
    29    21    22    1
    30    23    24    1
    31    23    88    1
    32    23    89    1
    33    24    25    1
    34    24    26    1
    35    24    90    1
    36    25    91    1
    37    25    92    1
    38    25    93    1
    39    26    94    1
    40    26    95    1
    41    26    96    1
    42    27    28   ar
    43    28    29   ar
    44    29    30   ar
    45    29    31    1
    46    30    33    1
    47    31    32    1
    48    32    33    1
    49    32    35    1
    50    34    97    1
    51    34    98    1
    52    34    99    1
    53    35    61    1
    54    36    37    1
    55    36    60    1
    56    37    38    1
    57    38    39    1
    58    39    40    1
    59    40    41    1
    60    41    42    1
    61    45   100    1
    62    47   101    1
    63    47   102    1
    64    47   103    1
    65    48   104    1
    66    49   105    1
    67    49   106    1
    68    49   107    1
    69    50   108    1
    70    51    59    1
    71    52   109    1
    72    52   110    1
    73    52   111    1
    74    53    54    1
    75    54    55    2
    76    54    56    1
    77    56   112    1
    78    56   113    1
    79    56   114    1
    80    57   115    1
    81    57   116    1
    82    57   117    1
    83    58   118    1
    84    58   119    1
    85    58   120    1
    86    59   121    1
    87    59   122    1
    88    59   123    1
    89    60    61    2
    90     1    47    1
    91     1    62    1
    92     2    63    1
    93     3    64    1
    94     4    65    1
    95     5     6    1
    96     7     8    2
    97     9    78    1
    98    15    79    1
    99    18    80    1
   100    18    81    1
   101    19    82    1
   102    19    83    1
   103    20    23    1
   104    21    84    1
   105    21    85    1
   106    22    86    1
   107    22    87    1
   108    27    45    1
   109    28    34    1
   110    32    58    1
   111    33    46    2
   112    36    51    1
   113    36    66    1
   114    37    52    1
   115    37    67    1
   116    38    53    1
   117    38    68    1
   118    42    48    1
   119    42    72    1
   120    43    44    2
   121    60    73    1
   122    61    74    1
   123    39    69    1
   124    39    57    1
   125    40    70    1
   126    40    50    1
   127    41    71    1
   128    41    49    1
