@<TRIPOS>MOLECULE
*****
 123 128 0 0 0
SMALL
GASTEIGER

@<TRIPOS>ATOM
     1 C         -1.386034   -4.116855   3.235578 C.3        1 UNL1     0.0009
     2 C         -2.824513   -4.945199   4.061205 C.2        1 UNL1     -0.0787
     3 C         -3.567334   -5.271201   5.260365 C.2        1 UNL1     -0.0649
     4 C         -5.057486   -6.066244   5.377466 C.2        1 UNL1     -0.0542
     5 C         -6.184646   -6.304576   6.201957 C.2        1 UNL1     0.0115
     6 C         -6.752418   -6.125219   7.636805 C.3        1 UNL1     -0.0348
     7 C         -7.533014   -6.861858   5.532383 C.2        1 UNL1     0.2441
     8 O         -7.876801   -8.033659   5.604629 O.2        1 UNL1     -0.2702
     9 N         -8.421279   -5.869299   5.082978 N.am        1 UNL1     -0.2772
     10 C         -8.122234   -5.507166   3.789628 C.2        1 UNL1     0.1049
     11 C         -7.157154   -4.617656   3.642608 C.2        1 UNL1     0.0801
     12 C         -7.646532   -6.454767   1.523995 C.ar        1 UNL1     0.0753
     13 C         -6.487006   -5.615923   1.502817 C.ar        1 UNL1     0.0305
     14 C         -6.27789   -4.574105   2.505782 C.2        1 UNL1     0.0924
     15 N         -6.550217   -3.842392   4.557552 N.pl3        1 UNL1     -0.3170
     16 C         -5.690495   -2.926155   3.856381 C.3        1 UNL1     0.1275
     17 N         -5.324336   -3.650216   2.583829 N.2        1 UNL1     -0.2557
     18 C         -6.546367   -1.735546   3.434913 C.3        1 UNL1     0.0016
     19 C         -7.210359   -1.151803   4.671824 C.3        1 UNL1     0.0026
     20 N         -6.174287   -0.745838   5.611385 N.3        1 UNL1     -0.3018
     21 C         -5.260946   -1.811763   6.028495 C.3        1 UNL1     0.0026
     22 C         -4.601623   -2.380684   4.770912 C.3        1 UNL1     0.0016
     23 C         -6.680334   0.088475   6.683057 C.3        1 UNL1     0.0012
     24 C         -6.66723   -0.678453   8.01475 C.3        1 UNL1     -0.0339
     25 C         -7.374125   -2.037948   7.887743 C.3        1 UNL1     -0.0615
     26 C         -5.240578   -0.834495   8.511836 C.3        1 UNL1     -0.0615
     27 C         -7.899303   -7.36275   0.498425 C.ar        1 UNL1     0.1347
     28 C         -7.089148   -7.493219   -0.615432 C.ar        1 UNL1     0.0342
     29 C         -5.92777   -6.692116   -0.590912 C.ar        1 UNL1     0.1435
     30 C         -5.642829   -5.80416   0.447144 C.ar        1 UNL1     0.0774
     31 O         -5.095699   -6.62452   -1.65303 O.3        1 UNL1     -0.4436
     32 C         -4.351857   -5.412852   -1.454454 C.3        1 UNL1     0.3143
     33 C         -4.42085   -5.145327   0.035474 C.2        1 UNL1     0.2504
     34 C         -7.425436   -8.257392   -1.865652 C.3        1 UNL1     -0.0327
     35 O         -2.982211   -5.698243   -1.764089 O.2        1 UNL1     -0.4528
     36 C         -1.508097   -2.447508   -3.055522 C.3        1 UNL1     0.0854
     37 C         -1.435378   -1.037698   -2.352195 C.3        1 UNL1     0.0236
     38 C         0.036739   -0.410539   -2.245955 C.3        1 UNL1     0.1131
     39 C         1.218888   -1.278238   -1.65275 C.3        1 UNL1     0.0200
     40 C         0.983665   -2.204101   -0.285312 C.3        1 UNL1     0.0661
     41 C         0.292983   -1.670494   1.169278 C.3        1 UNL1     0.0091
     42 C         -0.722259   -2.569481   2.404798 C.3        1 UNL1     0.0661
     43 C         -8.617769   -6.262693   2.629465 C.2        1 UNL1     0.2131
     44 O         -9.785127   -6.603362   2.566565 O.2        1 UNL1     -0.2851
     45 O         -9.0258   -8.173987   0.61816 O.3        1 UNL1     -0.5056
     46 O         -3.633099   -4.543106   0.730191 O.2        1 UNL1     -0.2836
     47 C         -0.083729   -4.924763   3.483101 C.3        1 UNL1     -0.0566
     48 O         0.053785   -2.077692   3.568849 O.3        1 UNL1     -0.3909
     49 C         -0.381435   -0.338161   0.929394 C.3        1 UNL1     -0.0577
     50 O         0.472827   -3.477662   -0.624149 O.3        1 UNL1     -0.3910
     51 O         -0.269892   -3.056787   -3.343722 O.3        1 UNL1     -0.3753
     52 C         -2.478578   -0.910599   -1.194383 C.3        1 UNL1     -0.0564
     53 O         0.04375   1.050725   -1.903923 O.3        1 UNL1     -0.4608
     54 C         -0.609836   1.62232   -0.843719 C.2        1 UNL1     0.3042
     55 O         -1.665056   2.254518   -0.869705 O.2        1 UNL1     -0.2512
     56 C         0.054177   1.36868   0.479711 C.3        1 UNL1     0.0332
     57 C         1.989539   -1.948876   -2.883407 C.3        1 UNL1     -0.0567
     58 C         -5.124594   -4.298417   -2.197718 C.3        1 UNL1     0.0210
     59 C         0.722478   -2.906645   -2.32956 C.3        1 UNL1     0.0372
     60 C         -2.331137   -3.46336   -2.344318 C.2        1 UNL1     -0.0208
     61 C         -2.08303   -4.747257   -2.08203 C.2        1 UNL1     0.0882
     62 H         -1.778369   -4.445157   2.265524 H        1 UNL1     0.0365
     63 H         -3.286613   -5.447822   3.20897 H        1 UNL1     0.0576
     64 H         -3.287145   -4.865886   6.23521 H        1 UNL1     0.0615
     65 H         -5.20231   -6.496273   4.382687 H        1 UNL1     0.0622
     66 H         -2.023199   -2.254965   -4.007175 H        1 UNL1     0.0645
     67 H         -1.914048   -0.353087   -3.07382 H        1 UNL1     0.0362
     68 H         0.266322   -0.297732   -3.316511 H        1 UNL1     0.0741
     69 H         2.021423   -0.616312   -1.355767 H        1 UNL1     0.0359
     70 H         2.036155   -2.394964   -0.000889 H        1 UNL1     0.0600
     71 H         1.205661   -1.35697   1.713042 H        1 UNL1     0.0348
     72 H         -0.201673   -3.341903   1.820272 H        1 UNL1     0.0602
     73 H         -3.290879   -3.056455   -2.142892 H        1 UNL1     0.0628
     74 H         -1.11043   -5.224964   -2.204845 H        1 UNL1     0.1022
     75 H         -6.04657   -5.531485   8.266323 H        1 UNL1     0.0279
     76 H         -7.677471   -5.559971   7.725351 H        1 UNL1     0.0279
     77 H         -6.799526   -7.07069   8.196776 H        1 UNL1     0.0279
     78 H         -8.327563   -5.038276   5.663231 H        1 UNL1     0.1553
     79 H         -6.936039   -3.642076   5.461956 H        1 UNL1     0.1484
     80 H         -5.908861   -0.995839   2.935727 H        1 UNL1     0.0317
     81 H         -7.305589   -2.038034   2.705712 H        1 UNL1     0.0317
     82 H         -7.907166   -1.865743   5.135141 H        1 UNL1     0.0428
     83 H         -7.817062   -0.305448   4.348336 H        1 UNL1     0.0428
     84 H         -4.445451   -1.464389   6.670455 H        1 UNL1     0.0428
     85 H         -5.771159   -2.573575   6.634004 H        1 UNL1     0.0428
     86 H         -3.847479   -3.060555   5.12167 H        1 UNL1     0.0317
     87 H         -4.022638   -1.598532   4.264839 H        1 UNL1     0.0317
     88 H         -6.02154   0.961752   6.776181 H        1 UNL1     0.0429
     89 H         -7.684953   0.466494   6.453674 H        1 UNL1     0.0429
     90 H         -7.186508   -0.084679   8.776325 H        1 UNL1     0.0308
     91 H         -6.698347   -2.862223   8.134721 H        1 UNL1     0.0233
     92 H         -8.247598   -2.081826   8.542516 H        1 UNL1     0.0233
     93 H         -7.743819   -2.223142   6.871936 H        1 UNL1     0.0233
     94 H         -5.114231   -1.808087   8.997626 H        1 UNL1     0.0233
     95 H         -4.544107   -0.7848   7.670158 H        1 UNL1     0.0233
     96 H         -4.980999   -0.052968   9.23142 H        1 UNL1     0.0233
     97 H         -6.540981   -8.671919   -2.340137 H        1 UNL1     0.0280
     98 H         -8.086154   -9.11065   -1.664015 H        1 UNL1     0.0280
     99 H         -7.921732   -7.586592   -2.585938 H        1 UNL1     0.0280
     100 H         -9.579248   -7.969709   1.351364 H        1 UNL1     0.2922
     101 H         -0.319144   -5.985689   3.564782 H        1 UNL1     0.0236
     102 H         0.487509   -4.565549   4.338458 H        1 UNL1     0.0236
     103 H         0.613509   -4.857582   2.631315 H        1 UNL1     0.0236
     104 H         0.608479   -1.33446   3.260803 H        1 UNL1     0.2098
     105 H         -1.463968   -0.391475   0.845182 H        1 UNL1     0.0234
     106 H         -0.095073   0.449232   1.626485 H        1 UNL1     0.0234
     107 H         0.0   0.0   0.0 H        1 UNL1     0.0234
     108 H         -0.343099   -3.33471   -1.141447 H        1 UNL1     0.2098
     109 H         -3.365713   -0.33586   -1.495015 H        1 UNL1     0.0234
     110 H         -2.789804   -1.878663   -0.787279 H        1 UNL1     0.0234
     111 H         -2.059936   -0.380006   -0.328845 H        1 UNL1     0.0234
     112 H         1.116311   1.153707   0.328038 H        1 UNL1     0.0342
     113 H         -0.081573   2.198458   1.171725 H        1 UNL1     0.0342
     114 H         -0.408229   0.479958   0.930841 H        1 UNL1     0.0342
     115 H         2.993326   -1.522802   -3.017791 H        1 UNL1     0.0234
     116 H         2.1009   -3.031823   -2.800498 H        1 UNL1     0.0234
     117 H         1.531274   -1.727624   -3.862683 H        1 UNL1     0.0234
     118 H         -6.200037   -4.302178   -1.947892 H        1 UNL1     0.0309
     119 H         -4.718013   -3.298619   -2.015239 H        1 UNL1     0.0309
     120 H         -5.117322   -4.434985   -3.284641 H        1 UNL1     0.0309
     121 H         1.199076   -3.876344   -2.188511 H        1 UNL1     0.0524
     122 H         1.50886   -2.188877   -2.616699 H        1 UNL1     0.0524
     123 H         0.264606   -2.57553   -1.401761 H        1 UNL1     0.0524
@<TRIPOS>BOND
     1     1     2    1
     2     1    42    1
     3     2     3    2
     4     3     4    1
     5     4     5    2
     6     5     7    1
     7     6    75    1
     8     6    76    1
     9     6    77    1
    10     7     9   am
    11     9    10    1
    12    10    11    2
    13    10    43    1
    14    11    14    1
    15    11    15    1
    16    12    13   ar
    17    12    27   ar
    18    12    43    1
    19    13    14    1
    20    13    30   ar
    21    14    17    2
    22    15    16    1
    23    16    17    1
    24    16    18    1
    25    16    22    1
    26    18    19    1
    27    19    20    1
    28    20    21    1
    29    21    22    1
    30    23    24    1
    31    23    88    1
    32    23    89    1
    33    24    25    1
    34    24    26    1
    35    24    90    1
    36    25    91    1
    37    25    92    1
    38    25    93    1
    39    26    94    1
    40    26    95    1
    41    26    96    1
    42    27    28   ar
    43    28    29   ar
    44    29    30   ar
    45    29    31    1
    46    30    33    1
    47    31    32    1
    48    32    33    1
    49    32    35    1
    50    34    97    1
    51    34    98    1
    52    34    99    1
    53    35    61    1
    54    36    37    1
    55    36    60    1
    56    37    38    1
    57    38    39    1
    58    39    40    1
    59    40    41    1
    60    41    42    1
    61    45   100    1
    62    47   101    1
    63    47   102    1
    64    47   103    1
    65    48   104    1
    66    49   105    1
    67    49   106    1
    68    49   107    1
    69    50   108    1
    70    51    59    1
    71    52   109    1
    72    52   110    1
    73    52   111    1
    74    53    54    1
    75    54    55    2
    76    54    56    1
    77    56   112    1
    78    56   113    1
    79    56   114    1
    80    57   115    1
    81    57   116    1
    82    57   117    1
    83    58   118    1
    84    58   119    1
    85    58   120    1
    86    59   121    1
    87    59   122    1
    88    59   123    1
    89    60    61    2
    90     1    47    1
    91     1    62    1
    92     2    63    1
    93     3    64    1
    94     4    65    1
    95     5     6    1
    96     7     8    2
    97     9    78    1
    98    15    79    1
    99    18    80    1
   100    18    81    1
   101    19    82    1
   102    19    83    1
   103    20    23    1
   104    21    84    1
   105    21    85    1
   106    22    86    1
   107    22    87    1
   108    27    45    1
   109    28    34    1
   110    32    58    1
   111    33    46    2
   112    36    51    1
   113    36    66    1
   114    37    52    1
   115    37    67    1
   116    38    53    1
   117    38    68    1
   118    42    48    1
   119    42    72    1
   120    43    44    2
   121    60    73    1
   122    61    74    1
   123    39    69    1
   124    39    57    1
   125    40    70    1
   126    40    50    1
   127    41    71    1
   128    41    49    1
