@<TRIPOS>MOLECULE
*****
 123 128 0 0 0
SMALL
GASTEIGER

@<TRIPOS>ATOM
     1 C         5.1687   1.741805   0.499924 C.3        1 UNL1     0.0009
     2 C         6.607906   2.545939   -0.348069 C.2        1 UNL1     -0.0787
     3 C         7.890767   2.445994   -1.011638 C.2        1 UNL1     -0.0649
     4 C         8.771157   3.679903   -1.765787 C.2        1 UNL1     -0.0542
     5 C         9.793154   3.971135   -2.702688 C.2        1 UNL1     0.0115
     6 C         10.921957   3.344134   -3.566399 C.3        1 UNL1     -0.0348
     7 C         9.891522   5.454241   -3.309078 C.2        1 UNL1     0.2441
     8 O         10.715882   6.274784   -2.930046 O.2        1 UNL1     -0.2702
     9 N         9.14355   5.662185   -4.48102 N.am        1 UNL1     -0.2772
     10 C         7.860834   6.050614   -4.169434 C.2        1 UNL1     0.1049
     11 C         7.013244   5.080358   -3.878891 C.2        1 UNL1     0.0801
     12 C         6.562251   7.659071   -2.76093 C.ar        1 UNL1     0.0753
     13 C         5.800915   6.5322   -2.314681 C.ar        1 UNL1     0.0305
     14 C         5.917161   5.22632   -2.959829 C.2        1 UNL1     0.0924
     15 N         7.13433   3.751209   -4.037732 N.pl3        1 UNL1     -0.3170
     16 C         5.863134   3.153771   -3.725672 C.3        1 UNL1     0.1275
     17 N         5.226383   4.1099   -2.746852 N.2        1 UNL1     -0.2557
     18 C         5.012491   3.213955   -4.990775 C.3        1 UNL1     0.0016
     19 C         5.76834   2.528802   -6.118094 C.3        1 UNL1     0.0026
     20 N         6.035965   1.150348   -5.731738 N.3        1 UNL1     -0.3018
     21 C         6.79702   0.988962   -4.491126 C.3        1 UNL1     0.0026
     22 C         6.017329   1.680575   -3.371462 C.3        1 UNL1     0.0016
     23 C         6.481225   0.330171   -6.840655 C.3        1 UNL1     0.0012
     24 C         5.327094   0.082228   -7.824659 C.3        1 UNL1     -0.0339
     25 C         5.355966   1.085331   -8.989566 C.3        1 UNL1     -0.0615
     26 C         5.365379   -1.352548   -8.321381 C.3        1 UNL1     -0.0615
     27 C         6.358403   8.927059   -2.2217 C.ar        1 UNL1     0.1347
     28 C         5.3981   9.197941   -1.26332 C.ar        1 UNL1     0.0342
     29 C         4.694229   8.064459   -0.804029 C.ar        1 UNL1     0.1435
     30 C         4.912783   6.782117   -1.309059 C.ar        1 UNL1     0.0774
     31 O         3.651962   8.179467   0.047709 O.3        1 UNL1     -0.4436
     32 C         2.928853   6.947621   -0.095619 C.3        1 UNL1     0.3143
     33 C         3.941695   5.953123   -0.626034 C.2        1 UNL1     0.2504
     34 C         4.952375   10.564665   -0.823443 C.3        1 UNL1     -0.0327
     35 O         2.565419   6.51146   1.22003 O.2        1 UNL1     -0.4528
     36 C         -0.679573   4.583656   0.817936 C.3        1 UNL1     0.0854
     37 C         -0.985085   3.323451   -0.079878 C.3        1 UNL1     0.0236
     38 C         -1.588667   2.063254   0.707101 C.3        1 UNL1     0.1131
     39 C         -0.865808   1.53139   2.009739 C.3        1 UNL1     0.0200
     40 C         0.795114   1.383595   2.053692 C.3        1 UNL1     0.0661
     41 C         1.755394   0.613416   0.886517 C.3        1 UNL1     0.0091
     42 C         3.464412   0.973634   0.325355 C.3        1 UNL1     0.0661
     43 C         7.513884   7.450033   -3.880286 C.2        1 UNL1     0.2131
     44 O         7.916186   8.347537   -4.598184 O.2        1 UNL1     -0.2851
     45 O         7.172838   9.961045   -2.678874 O.3        1 UNL1     -0.5056
     46 O         3.955833   4.749574   -0.495179 O.2        1 UNL1     -0.2836
     47 C         5.562076   1.311856   1.938806 C.3        1 UNL1     -0.0566
     48 O         3.910924   -0.438075   0.407951 O.3        1 UNL1     -0.3909
     49 C         0.922964   0.3819   -0.354836 C.3        1 UNL1     -0.0577
     50 O         1.396307   2.60066   2.447445 O.3        1 UNL1     -0.3910
     51 O         -0.806243   4.394216   2.209158 O.3        1 UNL1     -0.3753
     52 C         0.061075   3.161508   -1.230649 C.3        1 UNL1     -0.0564
     53 O         -2.191176   1.025046   -0.193694 O.3        1 UNL1     -0.4608
     54 C         -2.41582   -0.284625   0.141307 C.2        1 UNL1     0.3042
     55 O         -1.844316   -1.278417   -0.30546 O.2        1 UNL1     -0.2512
     56 C         -3.447143   -0.461277   1.219212 C.3        1 UNL1     0.0332
     57 C         -1.588031   2.201423   3.269749 C.3        1 UNL1     -0.0567
     58 C         1.855802   7.194118   -1.181589 C.3        1 UNL1     0.0210
     59 C         -1.149997   5.567357   2.944982 C.3        1 UNL1     0.0372
     60 C         0.650658   5.210923   0.589507 C.2        1 UNL1     -0.0208
     61 C         1.562733   5.64496   1.460412 C.2        1 UNL1     0.0882
     62 H         4.693972   2.726628   0.58635 H        1 UNL1     0.0365
     63 H         6.342915   3.600104   -0.243261 H        1 UNL1     0.0576
     64 H         8.347475   1.478512   -1.231875 H        1 UNL1     0.0615
     65 H         8.284741   4.595978   -1.419826 H        1 UNL1     0.0622
     66 H         -1.422691   5.331179   0.506435 H        1 UNL1     0.0645
     67 H         -1.849192   3.63396   -0.692627 H        1 UNL1     0.0362
     68 H         -2.535727   2.501436   1.057239 H        1 UNL1     0.0741
     69 H         -1.19903   0.520754   2.20464 H        1 UNL1     0.0359
     70 H         0.904525   0.72316   2.93512 H        1 UNL1     0.0600
     71 H         1.796878   -0.407785   1.313583 H        1 UNL1     0.0348
     72 H         3.357564   1.462036   1.304825 H        1 UNL1     0.0602
     73 H         0.770546   5.407956   -0.446859 H        1 UNL1     0.0628
     74 H         1.543121   5.434379   2.530229 H        1 UNL1     0.1022
     75 H         10.964681   2.238804   -3.413249 H        1 UNL1     0.0279
     76 H         10.810231   3.427018   -4.645156 H        1 UNL1     0.0279
     77 H         11.926901   3.647489   -3.238124 H        1 UNL1     0.0279
     78 H         9.081239   4.792292   -5.005883 H        1 UNL1     0.1553
     79 H         7.800043   3.32228   -4.653994 H        1 UNL1     0.1484
     80 H         4.050221   2.724339   -4.798212 H        1 UNL1     0.0317
     81 H         4.787743   4.251   -5.262211 H        1 UNL1     0.0317
     82 H         6.700135   3.058823   -6.364562 H        1 UNL1     0.0428
     83 H         5.144746   2.584744   -7.010872 H        1 UNL1     0.0428
     84 H         6.915408   -0.054135   -4.1817 H        1 UNL1     0.0428
     85 H         7.827784   1.355588   -4.593253 H        1 UNL1     0.0428
     86 H         6.531901   1.429562   -2.462509 H        1 UNL1     0.0317
     87 H         5.037029   1.204278   -3.247974 H        1 UNL1     0.0317
     88 H         7.278899   0.870854   -7.366652 H        1 UNL1     0.0429
     89 H         6.911949   -0.616168   -6.488957 H        1 UNL1     0.0429
     90 H         4.373496   0.190263   -7.294383 H        1 UNL1     0.0308
     91 H         6.305723   1.039101   -9.530792 H        1 UNL1     0.0233
     92 H         4.536579   0.892304   -9.685953 H        1 UNL1     0.0233
     93 H         5.23246   2.121392   -8.651692 H        1 UNL1     0.0233
     94 H         4.670313   -1.481229   -9.158137 H        1 UNL1     0.0233
     95 H         6.37001   -1.59821   -8.67681 H        1 UNL1     0.0233
     96 H         5.088738   -2.055965   -7.531037 H        1 UNL1     0.0233
     97 H         4.157741   10.51601   -0.084917 H        1 UNL1     0.0280
     98 H         5.76512   11.133632   -0.35336 H        1 UNL1     0.0280
     99 H         4.580909   11.129653   -1.694016 H        1 UNL1     0.0280
     100 H         6.70736   10.712007   -3.002923 H        1 UNL1     0.2922
     101 H         4.697837   0.879421   2.442538 H        1 UNL1     0.0236
     102 H         6.012988   2.116624   2.518469 H        1 UNL1     0.0236
     103 H         6.317235   0.50816   1.93901 H        1 UNL1     0.0236
     104 H         4.328835   -0.564578   1.282203 H        1 UNL1     0.2098
     105 H         0.71249   1.280983   -0.928562 H        1 UNL1     0.0234
     106 H         1.292371   -0.406664   -1.010299 H        1 UNL1     0.0234
     107 H         0.0   -0.0   0.0 H        1 UNL1     0.0234
     108 H         1.197409   3.259872   1.75488 H        1 UNL1     0.2098
     109 H         1.085122   3.046667   -0.848746 H        1 UNL1     0.0234
     110 H         -0.171362   2.334681   -1.910408 H        1 UNL1     0.0234
     111 H         0.084548   4.04425   -1.88346 H        1 UNL1     0.0234
     112 H         -3.574312   -1.525044   1.441865 H        1 UNL1     0.0342
     113 H         -3.199055   0.099338   2.119216 H        1 UNL1     0.0342
     114 H         -4.405932   -0.079052   0.84266 H        1 UNL1     0.0342
     115 H         -2.652641   1.934444   3.319915 H        1 UNL1     0.0234
     116 H         -1.138435   1.94033   4.229823 H        1 UNL1     0.0234
     117 H         -1.646906   3.301795   3.209276 H        1 UNL1     0.0234
     118 H         0.954707   7.682272   -0.770811 H        1 UNL1     0.0309
     119 H         2.227372   7.781544   -2.027206 H        1 UNL1     0.0309
     120 H         1.466673   6.262658   -1.60711 H        1 UNL1     0.0309
     121 H         -0.346047   6.289986   2.807764 H        1 UNL1     0.0524
     122 H         -2.080578   6.032701   2.579591 H        1 UNL1     0.0524
     123 H         -1.264719   5.329884   3.998804 H        1 UNL1     0.0524
@<TRIPOS>BOND
     1     1     2    1
     2     1    42    1
     3     2     3    2
     4     3     4    1
     5     4     5    2
     6     5     7    1
     7     6    75    1
     8     6    76    1
     9     6    77    1
    10     7     9   am
    11     9    10    1
    12    10    11    2
    13    10    43    1
    14    11    14    1
    15    11    15    1
    16    12    13   ar
    17    12    27   ar
    18    12    43    1
    19    13    14    1
    20    13    30   ar
    21    14    17    2
    22    15    16    1
    23    16    17    1
    24    16    18    1
    25    16    22    1
    26    18    19    1
    27    19    20    1
    28    20    21    1
    29    21    22    1
    30    23    24    1
    31    23    88    1
    32    23    89    1
    33    24    25    1
    34    24    26    1
    35    24    90    1
    36    25    91    1
    37    25    92    1
    38    25    93    1
    39    26    94    1
    40    26    95    1
    41    26    96    1
    42    27    28   ar
    43    28    29   ar
    44    29    30   ar
    45    29    31    1
    46    30    33    1
    47    31    32    1
    48    32    33    1
    49    32    35    1
    50    34    97    1
    51    34    98    1
    52    34    99    1
    53    35    61    1
    54    36    37    1
    55    36    60    1
    56    37    38    1
    57    38    39    1
    58    39    40    1
    59    40    41    1
    60    41    42    1
    61    45   100    1
    62    47   101    1
    63    47   102    1
    64    47   103    1
    65    48   104    1
    66    49   105    1
    67    49   106    1
    68    49   107    1
    69    50   108    1
    70    51    59    1
    71    52   109    1
    72    52   110    1
    73    52   111    1
    74    53    54    1
    75    54    55    2
    76    54    56    1
    77    56   112    1
    78    56   113    1
    79    56   114    1
    80    57   115    1
    81    57   116    1
    82    57   117    1
    83    58   118    1
    84    58   119    1
    85    58   120    1
    86    59   121    1
    87    59   122    1
    88    59   123    1
    89    60    61    2
    90     1    47    1
    91     1    62    1
    92     2    63    1
    93     3    64    1
    94     4    65    1
    95     5     6    1
    96     7     8    2
    97     9    78    1
    98    15    79    1
    99    18    80    1
   100    18    81    1
   101    19    82    1
   102    19    83    1
   103    20    23    1
   104    21    84    1
   105    21    85    1
   106    22    86    1
   107    22    87    1
   108    27    45    1
   109    28    34    1
   110    32    58    1
   111    33    46    2
   112    36    51    1
   113    36    66    1
   114    37    52    1
   115    37    67    1
   116    38    53    1
   117    38    68    1
   118    42    48    1
   119    42    72    1
   120    43    44    2
   121    60    73    1
   122    61    74    1
   123    39    69    1
   124    39    57    1
   125    40    70    1
   126    40    50    1
   127    41    71    1
   128    41    49    1
