@<TRIPOS>MOLECULE
*****
 123 128 0 0 0
SMALL
GASTEIGER

@<TRIPOS>ATOM
     1 C         5.122159   1.842674   0.60606 C.3        1 UNL1     0.0009
     2 C         6.559362   2.682944   -0.20968 C.2        1 UNL1     -0.0787
     3 C         7.855573   2.614647   -0.850943 C.2        1 UNL1     -0.0649
     4 C         8.723674   3.87242   -1.579479 C.2        1 UNL1     -0.0542
     5 C         9.755932   4.192136   -2.495614 C.2        1 UNL1     0.0115
     6 C         10.912515   3.595417   -3.343886 C.3        1 UNL1     -0.0348
     7 C         9.834561   5.681881   -3.08846 C.2        1 UNL1     0.2441
     8 O         10.635043   6.515917   -2.688287 O.2        1 UNL1     -0.2702
     9 N         9.10338   5.884169   -4.271932 N.am        1 UNL1     -0.2772
     10 C         7.807634   6.243781   -3.980312 C.2        1 UNL1     0.1049
     11 C         6.975128   5.254082   -3.712632 C.2        1 UNL1     0.0801
     12 C         6.451514   7.813771   -2.582669 C.ar        1 UNL1     0.0753
     13 C         5.705685   6.667973   -2.159001 C.ar        1 UNL1     0.0305
     14 C         5.86015   5.370091   -2.812219 C.2        1 UNL1     0.0924
     15 N         7.126283   3.929032   -3.879731 N.pl3        1 UNL1     -0.3170
     16 C         5.862289   3.303246   -3.595187 C.3        1 UNL1     0.1275
     17 N         5.188776   4.238101   -2.620431 N.2        1 UNL1     -0.2557
     18 C         5.033163   3.356482   -4.874804 C.3        1 UNL1     0.0016
     19 C         5.822799   2.696189   -5.993766 C.3        1 UNL1     0.0026
     20 N         6.111782   1.320347   -5.613538 N.3        1 UNL1     -0.3018
     21 C         6.853866   1.164307   -4.360809 C.3        1 UNL1     0.0026
     22 C         6.040399   1.830635   -3.249875 C.3        1 UNL1     0.0016
     23 C         6.59339   0.518577   -6.720725 C.3        1 UNL1     0.0012
     24 C         5.462229   0.255258   -7.727152 C.3        1 UNL1     -0.0339
     25 C         5.491152   1.268296   -8.883427 C.3        1 UNL1     -0.0615
     26 C         5.538776   -1.174301   -8.234381 C.3        1 UNL1     -0.0615
     27 C         6.212137   9.072857   -2.037216 C.ar        1 UNL1     0.1347
     28 C         5.229625   9.3162   -1.09408 C.ar        1 UNL1     0.0342
     29 C         4.541145   8.164857   -0.656394 C.ar        1 UNL1     0.1435
     30 C         4.794911   6.89144   -1.167504 C.ar        1 UNL1     0.0774
     31 O         3.481792   8.251571   0.177427 O.3        1 UNL1     -0.4436
     32 C         2.78679   7.006456   0.01149 C.3        1 UNL1     0.3143
     33 C         3.82909   6.037221   -0.508515 C.2        1 UNL1     0.2504
     34 C         4.748194   10.669883   -0.651513 C.3        1 UNL1     -0.0327
     35 O         2.409112   6.552159   1.31695 O.2        1 UNL1     -0.4528
     36 C         -0.787963   4.561956   0.841675 C.3        1 UNL1     0.0854
     37 C         -1.051558   3.303216   -0.07135 C.3        1 UNL1     0.0236
     38 C         -1.642996   2.024536   0.694759 C.3        1 UNL1     0.1131
     39 C         -0.932585   1.496819   2.005904 C.3        1 UNL1     0.0200
     40 C         0.729981   1.382569   2.078418 C.3        1 UNL1     0.0661
     41 C         1.726426   0.641768   0.922598 C.3        1 UNL1     0.0091
     42 C         3.43737   1.04137   0.394971 C.3        1 UNL1     0.0661
     43 C         7.426944   7.633405   -3.68642 C.2        1 UNL1     0.2131
     44 O         7.823398   8.544806   -4.389918 O.2        1 UNL1     -0.2851
     45 O         7.013146   10.126965   -2.471588 O.3        1 UNL1     -0.5056
     46 O         3.865619   4.833174   -0.386901 O.2        1 UNL1     -0.2836
     47 C         5.498698   1.409006   2.048327 C.3        1 UNL1     -0.0566
     48 O         3.911244   -0.361571   0.474439 O.3        1 UNL1     -0.3909
     49 C         0.921075   0.403551   -0.335241 C.3        1 UNL1     -0.0577
     50 O         1.298974   2.608359   2.492434 O.3        1 UNL1     -0.3910
     51 O         -0.935372   4.358525   2.228873 O.3        1 UNL1     -0.3753
     52 C         0.017954   3.17212   -1.204448 C.3        1 UNL1     -0.0564
     53 O         -2.207985   0.981708   -0.224819 O.3        1 UNL1     -0.4608
     54 C         -2.411197   -0.33508   0.095657 C.2        1 UNL1     0.3042
     55 O         -1.811019   -1.313043   -0.348429 O.2        1 UNL1     -0.2512
     56 C         -3.45795   -0.542052   1.153099 C.3        1 UNL1     0.0332
     57 C         -1.690651   2.141589   3.258014 C.3        1 UNL1     -0.0567
     58 C         1.728334   7.23995   -1.091542 C.3        1 UNL1     0.0210
     59 C         -1.316143   5.518315   2.967633 C.3        1 UNL1     0.0372
     60 C         0.532948   5.218079   0.642038 C.2        1 UNL1     -0.0208
     61 C         1.420326   5.663442   1.53252 C.2        1 UNL1     0.0882
     62 H         4.625848   2.816866   0.69172 H        1 UNL1     0.0365
     63 H         6.27096   3.730588   -0.101342 H        1 UNL1     0.0576
     64 H         8.335888   1.658526   -1.070573 H        1 UNL1     0.0615
     65 H         8.212488   4.775506   -1.235085 H        1 UNL1     0.0622
     66 H         -1.540634   5.296707   0.522812 H        1 UNL1     0.0645
     67 H         -1.910855   3.601072   -0.697009 H        1 UNL1     0.0362
     68 H         -2.604916   2.440416   1.031323 H        1 UNL1     0.0741
     69 H         -1.248386   0.478027   2.186851 H        1 UNL1     0.0359
     70 H         0.837281   0.717269   2.956441 H        1 UNL1     0.0600
     71 H         1.781292   -0.381856   1.342291 H        1 UNL1     0.0348
     72 H         3.303159   1.519412   1.376184 H        1 UNL1     0.0602
     73 H         0.667127   5.42604   -0.390433 H        1 UNL1     0.0628
     74 H         1.386071   5.443704   2.600124 H        1 UNL1     0.1022
     75 H         10.975206   2.489965   -3.198697 H        1 UNL1     0.0279
     76 H         10.818262   3.684883   -4.423784 H        1 UNL1     0.0279
     77 H         11.905036   3.91649   -2.995297 H        1 UNL1     0.0279
     78 H         9.068266   5.017537   -4.804653 H        1 UNL1     0.1553
     79 H         7.81149   3.518855   -4.487332 H        1 UNL1     0.1484
     80 H         4.077887   2.845777   -4.703355 H        1 UNL1     0.0317
     81 H         4.792015   4.390928   -5.142052 H        1 UNL1     0.0317
     82 H         6.747738   3.247114   -6.219337 H        1 UNL1     0.0428
     83 H         5.214121   2.746751   -6.897096 H        1 UNL1     0.0428
     84 H         6.988143   0.121329   -4.057529 H        1 UNL1     0.0428
     85 H         7.878532   1.552705   -4.441579 H        1 UNL1     0.0428
     86 H         6.543815   1.582694   -2.333859 H        1 UNL1     0.0317
     87 H         5.068051   1.333445   -3.147707 H        1 UNL1     0.0317
     88 H         7.388996   1.079726   -7.228087 H        1 UNL1     0.0429
     89 H         7.037152   -0.421645   -6.368828 H        1 UNL1     0.0429
     90 H         4.497359   0.339455   -7.213198 H        1 UNL1     0.0308
     91 H         6.452216   1.248088   -9.405969 H        1 UNL1     0.0233
     92 H         4.690297   1.062448   -9.597478 H        1 UNL1     0.0233
     93 H         5.33735   2.298475   -8.540045 H        1 UNL1     0.0233
     94 H         4.86145   -1.310238   -9.084433 H        1 UNL1     0.0233
     95 H         6.554386   -1.39649   -8.57369 H        1 UNL1     0.0233
     96 H         5.262664   -1.889696   -7.454675 H        1 UNL1     0.0233
     97 H         3.941753   10.598955   0.072263 H        1 UNL1     0.0280
     98 H         5.540618   11.251417   -0.162495 H        1 UNL1     0.0280
     99 H         4.380704   11.234325   -1.524125 H        1 UNL1     0.0280
     100 H         6.538154   10.871178   -2.797397 H        1 UNL1     0.2922
     101 H         4.634723   0.954904   2.533089 H        1 UNL1     0.0236
     102 H         5.922636   2.218003   2.642283 H        1 UNL1     0.0236
     103 H         6.270081   0.620903   2.055727 H        1 UNL1     0.0236
     104 H         4.316093   -0.486718   1.35501 H        1 UNL1     0.2098
     105 H         0.702391   1.302848   -0.905552 H        1 UNL1     0.0234
     106 H         1.318166   -0.371893   -0.990169 H        1 UNL1     0.0234
     107 H         0.0   -0.0   0.0 H        1 UNL1     0.0234
     108 H         1.101328   3.268381   1.800282 H        1 UNL1     0.2098
     109 H         1.037209   3.075046   -0.805189 H        1 UNL1     0.0234
     110 H         -0.185361   2.346348   -1.894743 H        1 UNL1     0.0234
     111 H         0.034869   4.060501   -1.849769 H        1 UNL1     0.0234
     112 H         -3.564621   -1.609817   1.367212 H        1 UNL1     0.0342
     113 H         -3.239584   0.018539   2.060788 H        1 UNL1     0.0342
     114 H         -4.418172   -0.17964   0.760931 H        1 UNL1     0.0342
     115 H         -2.755855   1.872706   3.273256 H        1 UNL1     0.0234
     116 H         -1.267629   1.862312   4.225023 H        1 UNL1     0.0234
     117 H         -1.749425   3.242873   3.217268 H        1 UNL1     0.0234
     118 H         0.81026   7.706229   -0.693133 H        1 UNL1     0.0309
     119 H         2.102702   7.841773   -1.925725 H        1 UNL1     0.0309
     120 H         1.366025   6.304284   -1.531276 H        1 UNL1     0.0309
     121 H         -0.523433   6.257131   2.853099 H        1 UNL1     0.0524
     122 H         -2.247797   5.969369   2.587357 H        1 UNL1     0.0524
     123 H         -1.447649   5.269232   4.016803 H        1 UNL1     0.0524
@<TRIPOS>BOND
     1     1     2    1
     2     1    42    1
     3     2     3    2
     4     3     4    1
     5     4     5    2
     6     5     7    1
     7     6    75    1
     8     6    76    1
     9     6    77    1
    10     7     9   am
    11     9    10    1
    12    10    11    2
    13    10    43    1
    14    11    14    1
    15    11    15    1
    16    12    13   ar
    17    12    27   ar
    18    12    43    1
    19    13    14    1
    20    13    30   ar
    21    14    17    2
    22    15    16    1
    23    16    17    1
    24    16    18    1
    25    16    22    1
    26    18    19    1
    27    19    20    1
    28    20    21    1
    29    21    22    1
    30    23    24    1
    31    23    88    1
    32    23    89    1
    33    24    25    1
    34    24    26    1
    35    24    90    1
    36    25    91    1
    37    25    92    1
    38    25    93    1
    39    26    94    1
    40    26    95    1
    41    26    96    1
    42    27    28   ar
    43    28    29   ar
    44    29    30   ar
    45    29    31    1
    46    30    33    1
    47    31    32    1
    48    32    33    1
    49    32    35    1
    50    34    97    1
    51    34    98    1
    52    34    99    1
    53    35    61    1
    54    36    37    1
    55    36    60    1
    56    37    38    1
    57    38    39    1
    58    39    40    1
    59    40    41    1
    60    41    42    1
    61    45   100    1
    62    47   101    1
    63    47   102    1
    64    47   103    1
    65    48   104    1
    66    49   105    1
    67    49   106    1
    68    49   107    1
    69    50   108    1
    70    51    59    1
    71    52   109    1
    72    52   110    1
    73    52   111    1
    74    53    54    1
    75    54    55    2
    76    54    56    1
    77    56   112    1
    78    56   113    1
    79    56   114    1
    80    57   115    1
    81    57   116    1
    82    57   117    1
    83    58   118    1
    84    58   119    1
    85    58   120    1
    86    59   121    1
    87    59   122    1
    88    59   123    1
    89    60    61    2
    90     1    47    1
    91     1    62    1
    92     2    63    1
    93     3    64    1
    94     4    65    1
    95     5     6    1
    96     7     8    2
    97     9    78    1
    98    15    79    1
    99    18    80    1
   100    18    81    1
   101    19    82    1
   102    19    83    1
   103    20    23    1
   104    21    84    1
   105    21    85    1
   106    22    86    1
   107    22    87    1
   108    27    45    1
   109    28    34    1
   110    32    58    1
   111    33    46    2
   112    36    51    1
   113    36    66    1
   114    37    52    1
   115    37    67    1
   116    38    53    1
   117    38    68    1
   118    42    48    1
   119    42    72    1
   120    43    44    2
   121    60    73    1
   122    61    74    1
   123    39    69    1
   124    39    57    1
   125    40    70    1
   126    40    50    1
   127    41    71    1
   128    41    49    1
