@<TRIPOS>MOLECULE
*****
 123 128 0 0 0
SMALL
GASTEIGER

@<TRIPOS>ATOM
     1 C         0.244587   0.024421   4.121286 C.3        1 UNL1     0.0009
     2 C         -0.820777   -0.888569   5.333097 C.2        1 UNL1     -0.0787
     3 C         -1.965904   -0.928278   6.218056 C.2        1 UNL1     -0.0649
     4 C         -2.566828   -2.253605   7.083364 C.2        1 UNL1     -0.0542
     5 C         -3.696917   -2.790359   7.748098 C.2        1 UNL1     0.0115
     6 C         -5.118724   -2.45726   8.278035 C.3        1 UNL1     -0.0348
     7 C         -3.751772   -4.368663   8.036084 C.2        1 UNL1     0.2441
     8 O         -3.518114   -4.853103   9.134832 O.2        1 UNL1     -0.2702
     9 N         -4.338661   -5.133936   7.013309 N.am        1 UNL1     -0.2772
     10 C         -3.391821   -5.501562   6.085048 C.2        1 UNL1     0.1049
     11 C         -3.105054   -4.604238   5.159416 C.2        1 UNL1     0.0801
     12 C         -1.1127   -6.5096   5.868719 C.ar        1 UNL1     0.0753
     13 C         -0.785341   -5.395978   5.031288 C.ar        1 UNL1     0.0305
     14 C         -1.81176   -4.477201   4.544088 C.2        1 UNL1     0.0924
     15 N         -3.734369   -3.460029   4.841176 N.pl3        1 UNL1     -0.3170
     16 C         -3.121357   -2.938427   3.648531 C.3        1 UNL1     0.1275
     17 N         -1.706731   -3.462635   3.690535 N.2        1 UNL1     -0.2557
     18 C         -3.791022   -3.621606   2.460038 C.3        1 UNL1     0.0016
     19 C         -5.291087   -3.389869   2.547745 C.3        1 UNL1     0.0026
     20 N         -5.54417   -1.955682   2.538547 N.3        1 UNL1     -0.3018
     21 C         -4.88994   -1.202021   3.610156 C.3        1 UNL1     0.0026
     22 C         -3.383782   -1.445546   3.500251 C.3        1 UNL1     0.0016
     23 C         -6.93921   -1.630614   2.317555 C.3        1 UNL1     0.0012
     24 C         -7.344895   -1.95362   0.870889 C.3        1 UNL1     -0.0339
     25 C         -8.389119   -0.955846   0.343538 C.3        1 UNL1     -0.0615
     26 C         -6.114046   -1.996624   -0.017899 C.3        1 UNL1     -0.0615
     27 C         -0.149577   -7.448816   6.229807 C.ar        1 UNL1     0.1347
     28 C         1.159444   -7.40205   5.784468 C.ar        1 UNL1     0.0342
     29 C         1.470585   -6.270352   5.001133 C.ar        1 UNL1     0.1435
     30 C         0.524912   -5.302168   4.661218 C.ar        1 UNL1     0.0774
     31 O         2.673859   -6.137442   4.401572 O.3        1 UNL1     -0.4436
     32 C         2.456184   -5.172095   3.361574 C.3        1 UNL1     0.3143
     33 C         1.240875   -4.381762   3.802721 C.2        1 UNL1     0.2504
     34 C         2.177308   -8.49984   5.921989 C.3        1 UNL1     -0.0327
     35 O         3.569189   -4.269767   3.378181 O.2        1 UNL1     -0.4528
     36 C         3.996397   -3.078293   -0.200362 C.3        1 UNL1     0.0854
     37 C         2.956717   -2.35543   -1.140606 C.3        1 UNL1     0.0236
     38 C         3.456274   -0.960614   -1.754345 C.3        1 UNL1     0.1131
     39 C         4.055259   0.14822   -0.798324 C.3        1 UNL1     0.0200
     40 C         3.322272   0.492054   0.660081 C.3        1 UNL1     0.0661
     41 C         1.671788   0.807311   0.892733 C.3        1 UNL1     0.0091
     42 C         0.58119   0.445549   2.322812 C.3        1 UNL1     0.0661
     43 C         -2.532023   -6.680557   6.266908 C.2        1 UNL1     0.2131
     44 O         -3.007585   -7.743136   6.623985 O.2        1 UNL1     -0.2851
     45 O         -0.540129   -8.477235   7.084946 O.3        1 UNL1     -0.5056
     46 O         0.942328   -3.241553   3.525869 O.2        1 UNL1     -0.2836
     47 C         1.134536   1.060466   4.859246 C.3        1 UNL1     -0.0566
     48 O         -0.014796   1.803021   2.357302 O.3        1 UNL1     -0.3909
     49 C         0.916688   0.398851   -0.352449 C.3        1 UNL1     -0.0577
     50 O         3.797464   -0.369091   1.67514 O.3        1 UNL1     -0.3910
     51 O         5.152343   -2.339011   0.123183 O.3        1 UNL1     -0.3753
     52 C         1.48583   -2.571019   -0.655877 C.3        1 UNL1     -0.0564
     53 O         2.617055   -0.473282   -2.899135 O.3        1 UNL1     -0.4608
     54 C         2.293772   0.835037   -3.147569 C.2        1 UNL1     0.3042
     55 O         2.584764   1.50067   -4.140592 O.2        1 UNL1     -0.2512
     56 C         1.441446   1.457357   -2.078471 C.3        1 UNL1     0.0332
     57 C         5.646734   -0.01037   -0.813508 C.3        1 UNL1     -0.0567
     58 C         2.095117   -5.973674   2.08932 C.3        1 UNL1     0.0210
     59 C         6.349114   -2.79062   -0.508997 C.3        1 UNL1     0.0372
     60 C         3.437728   -3.58485   1.082779 C.2        1 UNL1     -0.0208
     61 C         3.9159   -3.50486   2.325235 C.2        1 UNL1     0.0882
     62 H         0.851703   -0.881065   4.002051 H        1 UNL1     0.0365
     63 H         -0.266092   -1.824498   5.427075 H        1 UNL1     0.0576
     64 H         -2.671395   -0.096603   6.278938 H        1 UNL1     0.0615
     65 H         -1.760404   -2.989713   7.025844 H        1 UNL1     0.0622
     66 H         4.307668   -3.968048   -0.7656 H        1 UNL1     0.0645
     67 H         2.922422   -2.992019   -2.041793 H        1 UNL1     0.0362
     68 H         4.306403   -1.318005   -2.35524 H        1 UNL1     0.0741
     69 H         4.025398   1.101359   -1.309246 H        1 UNL1     0.0359
     70 H         3.791904   1.468998   0.883887 H        1 UNL1     0.0600
     71 H         1.670165   1.910704   0.795384 H        1 UNL1     0.0348
     72 H         1.610322   0.404126   2.708153 H        1 UNL1     0.0602
     73 H         2.584226   -4.182953   0.880158 H        1 UNL1     0.0628
     74 H         4.749377   -2.868918   2.625453 H        1 UNL1     0.1022
     75 H         -5.108098   -1.500997   8.854648 H        1 UNL1     0.0279
     76 H         -5.884382   -2.270321   7.528441 H        1 UNL1     0.0279
     77 H         -5.464746   -3.167814   9.042941 H        1 UNL1     0.0279
     78 H         -5.041373   -4.577969   6.530428 H        1 UNL1     0.1553
     79 H         -4.682086   -3.255139   5.099604 H        1 UNL1     0.1484
     80 H         -3.376   -3.211426   1.53145 H        1 UNL1     0.0317
     81 H         -3.574376   -4.695228   2.452809 H        1 UNL1     0.0317
     82 H         -5.724508   -3.862564   3.441399 H        1 UNL1     0.0428
     83 H         -5.749061   -3.886813   1.691967 H        1 UNL1     0.0428
     84 H         -5.03068   -0.119336   3.534026 H        1 UNL1     0.0428
     85 H         -5.300058   -1.455605   4.597483 H        1 UNL1     0.0428
     86 H         -2.930126   -0.778797   4.209921 H        1 UNL1     0.0317
     87 H         -3.014298   -1.07841   2.534958 H        1 UNL1     0.0317
     88 H         -7.544825   -2.245653   2.995974 H        1 UNL1     0.0429
     89 H         -7.147737   -0.581158   2.562368 H        1 UNL1     0.0429
     90 H         -7.775548   -2.961325   0.835088 H        1 UNL1     0.0308
     91 H         -8.10846   0.075149   0.578871 H        1 UNL1     0.0233
     92 H         -8.508625   -1.057108   -0.737698 H        1 UNL1     0.0233
     93 H         -9.382351   -1.122207   0.777877 H        1 UNL1     0.0233
     94 H         -6.402664   -1.883587   -1.068498 H        1 UNL1     0.0233
     95 H         -5.4402   -1.173868   0.236987 H        1 UNL1     0.0233
     96 H         -5.574872   -2.941637   0.092598 H        1 UNL1     0.0233
     97 H         2.557911   -8.825624   4.958539 H        1 UNL1     0.0280
     98 H         3.054771   -8.180644   6.499421 H        1 UNL1     0.0280
     99 H         1.718685   -9.367604   6.423731 H        1 UNL1     0.0280
     100 H         -0.890403   -9.235366   6.651161 H        1 UNL1     0.2922
     101 H         2.158072   0.690796   4.917333 H        1 UNL1     0.0236
     102 H         0.744844   1.34087   5.837253 H        1 UNL1     0.0236
     103 H         1.211148   2.010428   4.304364 H        1 UNL1     0.0236
     104 H         0.696014   2.442447   2.155178 H        1 UNL1     0.2098
     105 H         0.685092   1.219542   -1.02672 H        1 UNL1     0.0234
     106 H         1.361977   -0.429052   -0.90401 H        1 UNL1     0.0234
     107 H         0.0   -0.0   0.0 H        1 UNL1     0.0234
     108 H         3.188292   -0.286856   2.43403 H        1 UNL1     0.2098
     109 H         1.202668   -3.632821   -0.645524 H        1 UNL1     0.0234
     110 H         1.287309   -2.129262   0.326561 H        1 UNL1     0.0234
     111 H         0.76424   -2.077428   -1.320423 H        1 UNL1     0.0234
     112 H         1.200588   2.489992   -2.348653 H        1 UNL1     0.0342
     113 H         0.536583   0.88177   -1.889351 H        1 UNL1     0.0342
     114 H         2.022514   1.479931   -1.146261 H        1 UNL1     0.0342
     115 H         6.154685   0.957367   -0.70099 H        1 UNL1     0.0234
     116 H         6.033911   -0.676353   -0.03981 H        1 UNL1     0.0234
     117 H         6.045849   -0.348824   -1.785155 H        1 UNL1     0.0234
     118 H         2.895416   -5.928897   1.330029 H        1 UNL1     0.0309
     119 H         1.8552   -7.021605   2.29543 H        1 UNL1     0.0309
     120 H         1.226191   -5.561114   1.565041 H        1 UNL1     0.0309
     121 H         6.719956   -3.643789   0.058396 H        1 UNL1     0.0524
     122 H         6.17328   -3.130796   -1.543115 H        1 UNL1     0.0524
     123 H         7.090787   -1.996964   -0.520204 H        1 UNL1     0.0524
@<TRIPOS>BOND
     1     1     2    1
     2     1    42    1
     3     2     3    2
     4     3     4    1
     5     4     5    2
     6     5     7    1
     7     6    75    1
     8     6    76    1
     9     6    77    1
    10     7     9   am
    11     9    10    1
    12    10    11    2
    13    10    43    1
    14    11    14    1
    15    11    15    1
    16    12    13   ar
    17    12    27   ar
    18    12    43    1
    19    13    14    1
    20    13    30   ar
    21    14    17    2
    22    15    16    1
    23    16    17    1
    24    16    18    1
    25    16    22    1
    26    18    19    1
    27    19    20    1
    28    20    21    1
    29    21    22    1
    30    23    24    1
    31    23    88    1
    32    23    89    1
    33    24    25    1
    34    24    26    1
    35    24    90    1
    36    25    91    1
    37    25    92    1
    38    25    93    1
    39    26    94    1
    40    26    95    1
    41    26    96    1
    42    27    28   ar
    43    28    29   ar
    44    29    30   ar
    45    29    31    1
    46    30    33    1
    47    31    32    1
    48    32    33    1
    49    32    35    1
    50    34    97    1
    51    34    98    1
    52    34    99    1
    53    35    61    1
    54    36    37    1
    55    36    60    1
    56    37    38    1
    57    38    39    1
    58    39    40    1
    59    40    41    1
    60    41    42    1
    61    45   100    1
    62    47   101    1
    63    47   102    1
    64    47   103    1
    65    48   104    1
    66    49   105    1
    67    49   106    1
    68    49   107    1
    69    50   108    1
    70    51    59    1
    71    52   109    1
    72    52   110    1
    73    52   111    1
    74    53    54    1
    75    54    55    2
    76    54    56    1
    77    56   112    1
    78    56   113    1
    79    56   114    1
    80    57   115    1
    81    57   116    1
    82    57   117    1
    83    58   118    1
    84    58   119    1
    85    58   120    1
    86    59   121    1
    87    59   122    1
    88    59   123    1
    89    60    61    2
    90     1    47    1
    91     1    62    1
    92     2    63    1
    93     3    64    1
    94     4    65    1
    95     5     6    1
    96     7     8    2
    97     9    78    1
    98    15    79    1
    99    18    80    1
   100    18    81    1
   101    19    82    1
   102    19    83    1
   103    20    23    1
   104    21    84    1
   105    21    85    1
   106    22    86    1
   107    22    87    1
   108    27    45    1
   109    28    34    1
   110    32    58    1
   111    33    46    2
   112    36    51    1
   113    36    66    1
   114    37    52    1
   115    37    67    1
   116    38    53    1
   117    38    68    1
   118    42    48    1
   119    42    72    1
   120    43    44    2
   121    60    73    1
   122    61    74    1
   123    39    69    1
   124    39    57    1
   125    40    70    1
   126    40    50    1
   127    41    71    1
   128    41    49    1
