@<TRIPOS>MOLECULE
*****
 123 128 0 0 0
SMALL
GASTEIGER

@<TRIPOS>ATOM
     1 C         3.05452   4.143822   1.065711 C.3        1 UNL1     0.0009
     2 C         3.212752   5.942637   0.645871 C.2        1 UNL1     -0.0787
     3 C         3.94228   7.028048   0.02481 C.2        1 UNL1     -0.0649
     4 C         3.460404   8.642013   -0.146268 C.2        1 UNL1     -0.0542
     5 C         3.667958   9.845843   -0.863758 C.2        1 UNL1     0.0115
     6 C         4.599316   10.555681   -1.884555 C.3        1 UNL1     -0.0348
     7 C         2.537314   10.984356   -0.814532 C.2        1 UNL1     0.2441
     8 O         2.631588   11.986138   -0.118781 O.2        1 UNL1     -0.2702
     9 N         1.556245   10.883834   -1.816306 N.am        1 UNL1     -0.2772
     10 C         0.52618   10.072097   -1.399927 C.2        1 UNL1     0.1049
     11 C         0.713898   8.772885   -1.544952 C.2        1 UNL1     0.0801
     12 C         -1.03486   9.672022   0.513298 C.ar        1 UNL1     0.0753
     13 C         -0.63682   8.2987   0.448801 C.ar        1 UNL1     0.0305
     14 C         0.151206   7.782095   -0.667974 C.2        1 UNL1     0.0924
     15 N         1.662401   8.107929   -2.226642 N.pl3        1 UNL1     -0.3170
     16 C         1.318135   6.710991   -2.20937 C.3        1 UNL1     0.1275
     17 N         0.521247   6.533895   -0.939989 N.2        1 UNL1     -0.2557
     18 C         0.343312   6.471299   -3.35827 C.3        1 UNL1     0.0016
     19 C         0.989953   6.942573   -4.651075 C.3        1 UNL1     0.0026
     20 N         2.228222   6.202627   -4.851563 N.3        1 UNL1     -0.3018
     21 C         3.205924   6.321468   -3.767892 C.3        1 UNL1     0.0026
     22 C         2.536754   5.838462   -2.479943 C.3        1 UNL1     0.0016
     23 C         2.766419   6.35559   -6.188571 C.3        1 UNL1     0.0012
     24 C         3.65995   7.603278   -6.270023 C.3        1 UNL1     -0.0339
     25 C         3.565599   8.27339   -7.650641 C.3        1 UNL1     -0.0615
     26 C         3.306548   8.570691   -5.153779 C.3        1 UNL1     -0.0615
     27 C         -1.885878   10.130481   1.516145 C.ar        1 UNL1     0.1347
     28 C         -2.43272   9.305088   2.482448 C.ar        1 UNL1     0.0342
     29 C         -1.98811   7.96697   2.428349 C.ar        1 UNL1     0.1435
     30 C         -1.107504   7.501141   1.451233 C.ar        1 UNL1     0.0774
     31 O         -2.513265   7.016799   3.232335 O.3        1 UNL1     -0.4436
     32 C         -2.188848   5.776039   2.587245 C.3        1 UNL1     0.3143
     33 C         -0.985099   6.083495   1.719678 C.2        1 UNL1     0.2504
     34 C         -3.541428   9.670682   3.429658 C.3        1 UNL1     -0.0327
     35 O         -1.74855   4.868962   3.605381 O.2        1 UNL1     -0.4528
     36 C         -2.698582   1.400516   2.390716 C.3        1 UNL1     0.0854
     37 C         -2.29597   0.668345   1.05305 C.3        1 UNL1     0.0236
     38 C         -1.602309   -0.764191   1.249055 C.3        1 UNL1     0.1131
     39 C         -0.377221   -0.914541   2.23841 C.3        1 UNL1     0.0200
     40 C         0.842264   0.223486   2.252157 C.3        1 UNL1     0.0661
     41 C         1.671817   0.807427   0.892574 C.3        1 UNL1     0.0091
     42 C         2.398168   2.458913   0.560295 C.3        1 UNL1     0.0661
     43 C         -0.583076   10.573849   -0.575214 C.2        1 UNL1     0.2131
     44 O         -1.141161   11.618175   -0.859223 O.2        1 UNL1     -0.2851
     45 O         -2.187884   11.490595   1.534063 O.3        1 UNL1     -0.5056
     46 O         -0.109983   5.33218   1.351504 O.2        1 UNL1     -0.2836
     47 C         4.029875   3.77031   2.214255 C.3        1 UNL1     -0.0566
     48 O         3.690097   1.918607   0.072334 O.3        1 UNL1     -0.3909
     49 C         0.916617   0.398936   -0.352537 C.3        1 UNL1     -0.0577
     50 O         0.519636   1.293325   3.11765 O.3        1 UNL1     -0.3910
     51 O         -2.248478   0.797259   3.582739 O.3        1 UNL1     -0.3753
     52 C         -1.822807   1.677986   -0.043168 C.3        1 UNL1     -0.0564
     53 O         -1.550839   -1.583475   -0.007309 O.3        1 UNL1     -0.4608
     54 C         -1.677719   -1.094495   -1.281173 C.2        1 UNL1     0.3042
     55 O         -0.8606   -1.176265   -2.197399 O.2        1 UNL1     -0.2512
     56 C         -3.005875   -0.444585   -1.546372 C.3        1 UNL1     0.0332
     57 C         -0.952549   -1.407467   3.647025 C.3        1 UNL1     -0.0567
     58 C         -3.387747   5.431749   1.673113 C.3        1 UNL1     0.0210
     59 C         -3.267148   0.16491   4.356245 C.3        1 UNL1     0.0372
     60 C         -2.31126   2.835749   2.463159 C.2        1 UNL1     -0.0208
     61 C         -1.749948   3.530715   3.45346 C.2        1 UNL1     0.0882
     62 H         2.08649   4.358065   1.534464 H        1 UNL1     0.0365
     63 H         2.341919   6.349942   1.163774 H        1 UNL1     0.0576
     64 H         4.847528   6.848758   -0.55956 H        1 UNL1     0.0615
     65 H         2.607262   8.732514   0.531553 H        1 UNL1     0.0622
     66 H         -3.797571   1.384454   2.394175 H        1 UNL1     0.0645
     67 H         -3.262419   0.38429   0.601554 H        1 UNL1     0.0362
     68 H         -2.432067   -1.306415   1.727612 H        1 UNL1     0.0741
     69 H         0.152717   -1.82708   1.999985 H        1 UNL1     0.0359
     70 H         1.625275   -0.342597   2.792068 H        1 UNL1     0.0600
     71 H         2.525762   0.102298   0.869595 H        1 UNL1     0.0348
     72 H         2.275697   2.39543   1.651298 H        1 UNL1     0.0602
     73 H         -2.668024   3.337854   1.598371 H        1 UNL1     0.0628
     74 H         -1.307432   3.085795   4.345348 H        1 UNL1     0.1022
     75 H         5.542856   10.888691   -1.388702 H        1 UNL1     0.0279
     76 H         4.968996   9.948484   -2.707791 H        1 UNL1     0.0279
     77 H         4.19069   11.513512   -2.238511 H        1 UNL1     0.0279
     78 H         1.960572   10.462396   -2.649964 H        1 UNL1     0.1553
     79 H         2.221306   8.521256   -2.950327 H        1 UNL1     0.1484
     80 H         0.095726   5.403729   -3.400247 H        1 UNL1     0.0317
     81 H         -0.598257   7.005057   -3.190337 H        1 UNL1     0.0317
     82 H         1.173818   8.027024   -4.64259 H        1 UNL1     0.0428
     83 H         0.277258   6.764148   -5.456856 H        1 UNL1     0.0428
     84 H         4.091924   5.693916   -3.905706 H        1 UNL1     0.0428
     85 H         3.609933   7.340437   -3.691757 H        1 UNL1     0.0428
     86 H         3.315764   5.813473   -1.740682 H        1 UNL1     0.0317
     87 H         2.247948   4.785051   -2.580009 H        1 UNL1     0.0317
     88 H         3.378279   5.472245   -6.413567 H        1 UNL1     0.0429
     89 H         1.966078   6.392035   -6.938838 H        1 UNL1     0.0429
     90 H         4.701989   7.310911   -6.09427 H        1 UNL1     0.0308
     91 H         2.525584   8.365822   -7.977639 H        1 UNL1     0.0233
     92 H         4.024857   9.264506   -7.631169 H        1 UNL1     0.0233
     93 H         4.093972   7.706731   -8.426884 H        1 UNL1     0.0233
     94 H         3.633124   9.583323   -5.414088 H        1 UNL1     0.0233
     95 H         2.222964   8.593015   -5.007803 H        1 UNL1     0.0233
     96 H         3.783767   8.285036   -4.212168 H        1 UNL1     0.0233
     97 H         -3.21685   10.384734   4.180663 H        1 UNL1     0.0280
     98 H         -4.388301   10.141469   2.913496 H        1 UNL1     0.0280
     99 H         -3.899451   8.764926   3.945914 H        1 UNL1     0.0280
     100 H         -2.930527   11.733695   1.009653 H        1 UNL1     0.2922
     101 H         3.475148   3.657001   3.145434 H        1 UNL1     0.0236
     102 H         4.8604   4.468168   2.315285 H        1 UNL1     0.0236
     103 H         4.505716   2.788962   2.050782 H        1 UNL1     0.0236
     104 H         3.602125   0.946807   0.019088 H        1 UNL1     0.2098
     105 H         0.684881   1.219625   -1.026763 H        1 UNL1     0.0234
     106 H         1.361916   -0.428917   -0.904167 H        1 UNL1     0.0234
     107 H         0.0   -0.0   0.0 H        1 UNL1     0.0234
     108 H         1.278073   1.90857   3.113615 H        1 UNL1     0.2098
     109 H         -2.144416   1.379095   -1.050612 H        1 UNL1     0.0234
     110 H         -2.142032   2.707221   0.153082 H        1 UNL1     0.0234
     111 H         -0.727485   1.742935   -0.087865 H        1 UNL1     0.0234
     112 H         -3.049397   -0.096202   -2.582751 H        1 UNL1     0.0342
     113 H         -3.838994   -1.109052   -1.322231 H        1 UNL1     0.0342
     114 H         -3.094981   0.433425   -0.891908 H        1 UNL1     0.0342
     115 H         -0.252129   -2.079627   4.161613 H        1 UNL1     0.0234
     116 H         -1.195075   -0.595976   4.336018 H        1 UNL1     0.0234
     117 H         -1.841777   -2.054827   3.556803 H        1 UNL1     0.0234
     118 H         -3.065912   4.967442   0.72451 H        1 UNL1     0.0309
     119 H         -4.124864   4.78332   2.157263 H        1 UNL1     0.0309
     120 H         -3.935748   6.321933   1.345436 H        1 UNL1     0.0309
     121 H         -2.935413   0.156174   5.394143 H        1 UNL1     0.0524
     122 H         -4.222923   0.713596   4.317827 H        1 UNL1     0.0524
     123 H         -3.429216   -0.850539   4.005974 H        1 UNL1     0.0524
@<TRIPOS>BOND
     1     1     2    1
     2     1    42    1
     3     2     3    2
     4     3     4    1
     5     4     5    2
     6     5     7    1
     7     6    75    1
     8     6    76    1
     9     6    77    1
    10     7     9   am
    11     9    10    1
    12    10    11    2
    13    10    43    1
    14    11    14    1
    15    11    15    1
    16    12    13   ar
    17    12    27   ar
    18    12    43    1
    19    13    14    1
    20    13    30   ar
    21    14    17    2
    22    15    16    1
    23    16    17    1
    24    16    18    1
    25    16    22    1
    26    18    19    1
    27    19    20    1
    28    20    21    1
    29    21    22    1
    30    23    24    1
    31    23    88    1
    32    23    89    1
    33    24    25    1
    34    24    26    1
    35    24    90    1
    36    25    91    1
    37    25    92    1
    38    25    93    1
    39    26    94    1
    40    26    95    1
    41    26    96    1
    42    27    28   ar
    43    28    29   ar
    44    29    30   ar
    45    29    31    1
    46    30    33    1
    47    31    32    1
    48    32    33    1
    49    32    35    1
    50    34    97    1
    51    34    98    1
    52    34    99    1
    53    35    61    1
    54    36    37    1
    55    36    60    1
    56    37    38    1
    57    38    39    1
    58    39    40    1
    59    40    41    1
    60    41    42    1
    61    45   100    1
    62    47   101    1
    63    47   102    1
    64    47   103    1
    65    48   104    1
    66    49   105    1
    67    49   106    1
    68    49   107    1
    69    50   108    1
    70    51    59    1
    71    52   109    1
    72    52   110    1
    73    52   111    1
    74    53    54    1
    75    54    55    2
    76    54    56    1
    77    56   112    1
    78    56   113    1
    79    56   114    1
    80    57   115    1
    81    57   116    1
    82    57   117    1
    83    58   118    1
    84    58   119    1
    85    58   120    1
    86    59   121    1
    87    59   122    1
    88    59   123    1
    89    60    61    2
    90     1    47    1
    91     1    62    1
    92     2    63    1
    93     3    64    1
    94     4    65    1
    95     5     6    1
    96     7     8    2
    97     9    78    1
    98    15    79    1
    99    18    80    1
   100    18    81    1
   101    19    82    1
   102    19    83    1
   103    20    23    1
   104    21    84    1
   105    21    85    1
   106    22    86    1
   107    22    87    1
   108    27    45    1
   109    28    34    1
   110    32    58    1
   111    33    46    2
   112    36    51    1
   113    36    66    1
   114    37    52    1
   115    37    67    1
   116    38    53    1
   117    38    68    1
   118    42    48    1
   119    42    72    1
   120    43    44    2
   121    60    73    1
   122    61    74    1
   123    39    69    1
   124    39    57    1
   125    40    70    1
   126    40    50    1
   127    41    71    1
   128    41    49    1
