@<TRIPOS>MOLECULE
*****
 123 128 0 0 0
SMALL
GASTEIGER

@<TRIPOS>ATOM
     1 C         -0.208081   1.918693   3.77443 C.3        1 UNL1     0.0009
     2 C         -1.68427   2.072746   4.885363 C.2        1 UNL1     -0.0787
     3 C         -2.753573   2.86872   5.450221 C.2        1 UNL1     -0.0649
     4 C         -4.01727   2.352921   6.451909 C.2        1 UNL1     -0.0542
     5 C         -5.311552   2.659824   6.939477 C.2        1 UNL1     0.0115
     6 C         -6.397114   3.768769   7.011017 C.3        1 UNL1     -0.0348
     7 C         -6.192652   1.48889   7.59489 C.2        1 UNL1     0.2441
     8 O         -6.330075   1.356384   8.803229 O.2        1 UNL1     -0.2702
     9 N         -7.005298   0.785679   6.688661 N.am        1 UNL1     -0.2772
     10 C         -6.311232   -0.267385   6.138524 C.2        1 UNL1     0.1049
     11 C         -5.53099   0.022088   5.113024 C.2        1 UNL1     0.0801
     12 C         -4.865474   -2.219012   6.737078 C.ar        1 UNL1     0.0753
     13 C         -3.946459   -1.741054   5.749365 C.ar        1 UNL1     0.0305
     14 C         -4.311855   -0.679275   4.814399 C.2        1 UNL1     0.0924
     15 N         -5.454902   1.142672   4.374763 N.pl3        1 UNL1     -0.3170
     16 C         -4.567745   0.883038   3.272131 C.3        1 UNL1     0.1275
     17 N         -3.632346   -0.185373   3.783257 N.2        1 UNL1     -0.2557
     18 C         -5.395622   0.229153   2.169972 C.3        1 UNL1     0.0016
     19 C         -6.564699   1.141206   1.833806 C.3        1 UNL1     0.0026
     20 N         -6.042998   2.43063   1.402248 N.3        1 UNL1     -0.3018
     21 C         -5.182717   3.109795   2.37334 C.3        1 UNL1     0.0026
     22 C         -4.012717   2.177742   2.693137 C.3        1 UNL1     0.0016
     23 C         -7.049685   3.266071   0.778339 C.3        1 UNL1     0.0012
     24 C         -7.805649   4.081686   1.839021 C.3        1 UNL1     -0.0339
     25 C         -9.278338   4.2859   1.447179 C.3        1 UNL1     -0.0615
     26 C         -7.675928   3.415925   3.19796 C.3        1 UNL1     -0.0615
     27 C         -4.554541   -3.311086   7.543808 C.ar        1 UNL1     0.1347
     28 C         -3.376845   -4.027887   7.42857 C.ar        1 UNL1     0.0342
     29 C         -2.466724   -3.509287   6.483109 C.ar        1 UNL1     0.1435
     30 C         -2.749561   -2.394341   5.693096 C.ar        1 UNL1     0.0774
     31 O         -1.322717   -4.158942   6.176186 O.3        1 UNL1     -0.4436
     32 C         -0.929182   -3.619653   4.905292 C.3        1 UNL1     0.3143
     33 C         -1.596271   -2.261279   4.827659 C.2        1 UNL1     0.2504
     34 C         -3.082755   -5.351012   8.078917 C.3        1 UNL1     -0.0327
     35 O         0.483829   -3.388002   4.959963 O.2        1 UNL1     -0.4528
     36 C         1.747674   -3.821545   1.407102 C.3        1 UNL1     0.0854
     37 C         1.306546   -3.067835   0.093766 C.3        1 UNL1     0.0236
     38 C         2.499236   -2.363002   -0.713976 C.3        1 UNL1     0.1131
     39 C         3.504135   -1.406356   0.045811 C.3        1 UNL1     0.0200
     40 C         2.938027   -0.291779   1.1502 C.3        1 UNL1     0.0661
     41 C         1.671798   0.807303   0.892722 C.3        1 UNL1     0.0091
     42 C         0.439885   1.498889   2.062979 C.3        1 UNL1     0.0661
     43 C         -6.197428   -1.569097   6.813023 C.2        1 UNL1     0.2131
     44 O         -7.178311   -2.099649   7.302022 O.2        1 UNL1     -0.2851
     45 O         -5.485155   -3.684026   8.511441 O.3        1 UNL1     -0.5056
     46 O         -1.243055   -1.282607   4.208552 O.2        1 UNL1     -0.2836
     47 C         1.025375   2.607452   4.417996 C.3        1 UNL1     -0.0566
     48 O         0.625796   2.898497   1.60949 O.3        1 UNL1     -0.3909
     49 C         0.916688   0.398845   -0.352455 C.3        1 UNL1     -0.0577
     50 O         2.819981   -0.872954   2.433175 O.3        1 UNL1     -0.3910
     51 O         3.088978   -3.639325   1.800969 O.3        1 UNL1     -0.3753
     52 C         -0.099317   -2.401373   0.249735 C.3        1 UNL1     -0.0564
     53 O         2.124643   -1.964242   -2.111472 O.3        1 UNL1     -0.4608
     54 C         2.998126   -1.814202   -3.156673 C.2        1 UNL1     0.3042
     55 O         2.99078   -2.417961   -4.228709 O.2        1 UNL1     -0.2512
     56 C         4.024035   -0.739749   -2.933569 C.3        1 UNL1     0.0332
     57 C         4.78307   -2.276047   0.453412 C.3        1 UNL1     -0.0567
     58 C         -1.54764   -4.541427   3.82855 C.3        1 UNL1     0.0210
     59 C         3.545846   -4.541253   2.807777 C.3        1 UNL1     0.0372
     60 C         0.907415   -3.543981   2.603798 C.2        1 UNL1     -0.0208
     61 C         1.257407   -3.277909   3.862947 C.2        1 UNL1     0.0882
     62 H         -0.145397   0.855753   4.036997 H        1 UNL1     0.0365
     63 H         -1.699089   1.081329   5.342901 H        1 UNL1     0.0576
     64 H         -2.933538   3.896773   5.127999 H        1 UNL1     0.0615
     65 H         -3.702253   1.357768   6.777359 H        1 UNL1     0.0622
     66 H         1.601493   -4.886238   1.176655 H        1 UNL1     0.0645
     67 H         1.022252   -3.879379   -0.598428 H        1 UNL1     0.0362
     68 H         3.089745   -3.252063   -0.983034 H        1 UNL1     0.0741
     69 H         4.009428   -0.784402   -0.681005 H        1 UNL1     0.0359
     70 H         3.823308   0.368226   1.225909 H        1 UNL1     0.0600
     71 H         2.245308   1.679603   0.522404 H        1 UNL1     0.0348
     72 H         1.26668   1.120573   2.681528 H        1 UNL1     0.0602
     73 H         -0.112706   -3.709061   2.360179 H        1 UNL1     0.0628
     74 H         2.272056   -3.039481   4.183691 H        1 UNL1     0.1022
     75 H         -6.115906   4.544681   7.763292 H        1 UNL1     0.0279
     76 H         -6.547297   4.35948   6.110142 H        1 UNL1     0.0279
     77 H         -7.350545   3.40473   7.421075 H        1 UNL1     0.0279
     78 H         -7.281042   1.402091   5.927031 H        1 UNL1     0.1553
     79 H         -6.179709   1.835658   4.337909 H        1 UNL1     0.1484
     80 H         -4.755977   0.059073   1.295504 H        1 UNL1     0.0317
     81 H         -5.761811   -0.753434   2.486326 H        1 UNL1     0.0317
     82 H         -7.249391   1.256686   2.686903 H        1 UNL1     0.0428
     83 H         -7.142709   0.655081   1.047271 H        1 UNL1     0.0428
     84 H         -4.740365   4.03652   1.994768 H        1 UNL1     0.0428
     85 H         -5.742395   3.425901   3.264493 H        1 UNL1     0.0428
     86 H         -3.339421   2.755534   3.298792 H        1 UNL1     0.0317
     87 H         -3.431148   1.980949   1.784211 H        1 UNL1     0.0317
     88 H         -6.541953   3.962525   0.098298 H        1 UNL1     0.0429
     89 H         -7.74175   2.669628   0.17 H        1 UNL1     0.0429
     90 H         -7.331806   5.065207   1.940871 H        1 UNL1     0.0308
     91 H         -9.730845   3.352004   1.100511 H        1 UNL1     0.0233
     92 H         -9.853256   4.670761   2.292732 H        1 UNL1     0.0233
     93 H         -9.397767   5.016758   0.638218 H        1 UNL1     0.0233
     94 H         -8.490128   3.738532   3.855865 H        1 UNL1     0.0233
     95 H         -7.740439   2.329628   3.089519 H        1 UNL1     0.0233
     96 H         -6.725057   3.667076   3.676224 H        1 UNL1     0.0233
     97 H         -2.955745   -5.257636   9.153338 H        1 UNL1     0.0280
     98 H         -3.896767   -6.073292   7.93417 H        1 UNL1     0.0280
     99 H         -2.155559   -5.771809   7.656622 H        1 UNL1     0.0280
     100 H         -6.139458   -4.290608   8.212162 H        1 UNL1     0.2922
     101 H         1.76475   2.830501   3.649081 H        1 UNL1     0.0236
     102 H         1.452277   2.038185   5.243025 H        1 UNL1     0.0236
     103 H         0.771346   3.58772   4.854733 H        1 UNL1     0.0236
     104 H         1.070653   2.870148   0.739852 H        1 UNL1     0.2098
     105 H         0.685094   1.219536   -1.026727 H        1 UNL1     0.0234
     106 H         1.36197   -0.429063   -0.904016 H        1 UNL1     0.0234
     107 H         0.0   -0.0   0.0 H        1 UNL1     0.0234
     108 H         2.519871   -0.171555   3.042881 H        1 UNL1     0.2098
     109 H         -0.838265   -2.821136   -0.44702 H        1 UNL1     0.0234
     110 H         -0.48905   -2.452967   1.27208 H        1 UNL1     0.0234
     111 H         -0.063548   -1.325521   0.03246 H        1 UNL1     0.0234
     112 H         4.980119   -1.041241   -3.372148 H        1 UNL1     0.0342
     113 H         3.700544   0.223191   -3.325923 H        1 UNL1     0.0342
     114 H         4.171319   -0.625516   -1.850784 H        1 UNL1     0.0342
     115 H         5.707914   -1.683972   0.417389 H        1 UNL1     0.0234
     116 H         4.717674   -2.722752   1.447508 H        1 UNL1     0.0234
     117 H         5.016244   -3.079507   -0.266326 H        1 UNL1     0.0234
     118 H         -1.891532   -3.974812   2.945549 H        1 UNL1     0.0309
     119 H         -0.869307   -5.336146   3.502224 H        1 UNL1     0.0309
     120 H         -2.457186   -5.043059   4.176684 H        1 UNL1     0.0309
     121 H         3.919367   -5.433563   2.306159 H        1 UNL1     0.0524
     122 H         4.375842   -4.121429   3.400139 H        1 UNL1     0.0524
     123 H         2.730909   -4.801109   3.477439 H        1 UNL1     0.0524
@<TRIPOS>BOND
     1     1     2    1
     2     1    42    1
     3     2     3    2
     4     3     4    1
     5     4     5    2
     6     5     7    1
     7     6    75    1
     8     6    76    1
     9     6    77    1
    10     7     9   am
    11     9    10    1
    12    10    11    2
    13    10    43    1
    14    11    14    1
    15    11    15    1
    16    12    13   ar
    17    12    27   ar
    18    12    43    1
    19    13    14    1
    20    13    30   ar
    21    14    17    2
    22    15    16    1
    23    16    17    1
    24    16    18    1
    25    16    22    1
    26    18    19    1
    27    19    20    1
    28    20    21    1
    29    21    22    1
    30    23    24    1
    31    23    88    1
    32    23    89    1
    33    24    25    1
    34    24    26    1
    35    24    90    1
    36    25    91    1
    37    25    92    1
    38    25    93    1
    39    26    94    1
    40    26    95    1
    41    26    96    1
    42    27    28   ar
    43    28    29   ar
    44    29    30   ar
    45    29    31    1
    46    30    33    1
    47    31    32    1
    48    32    33    1
    49    32    35    1
    50    34    97    1
    51    34    98    1
    52    34    99    1
    53    35    61    1
    54    36    37    1
    55    36    60    1
    56    37    38    1
    57    38    39    1
    58    39    40    1
    59    40    41    1
    60    41    42    1
    61    45   100    1
    62    47   101    1
    63    47   102    1
    64    47   103    1
    65    48   104    1
    66    49   105    1
    67    49   106    1
    68    49   107    1
    69    50   108    1
    70    51    59    1
    71    52   109    1
    72    52   110    1
    73    52   111    1
    74    53    54    1
    75    54    55    2
    76    54    56    1
    77    56   112    1
    78    56   113    1
    79    56   114    1
    80    57   115    1
    81    57   116    1
    82    57   117    1
    83    58   118    1
    84    58   119    1
    85    58   120    1
    86    59   121    1
    87    59   122    1
    88    59   123    1
    89    60    61    2
    90     1    47    1
    91     1    62    1
    92     2    63    1
    93     3    64    1
    94     4    65    1
    95     5     6    1
    96     7     8    2
    97     9    78    1
    98    15    79    1
    99    18    80    1
   100    18    81    1
   101    19    82    1
   102    19    83    1
   103    20    23    1
   104    21    84    1
   105    21    85    1
   106    22    86    1
   107    22    87    1
   108    27    45    1
   109    28    34    1
   110    32    58    1
   111    33    46    2
   112    36    51    1
   113    36    66    1
   114    37    52    1
   115    37    67    1
   116    38    53    1
   117    38    68    1
   118    42    48    1
   119    42    72    1
   120    43    44    2
   121    60    73    1
   122    61    74    1
   123    39    69    1
   124    39    57    1
   125    40    70    1
   126    40    50    1
   127    41    71    1
   128    41    49    1
