@<TRIPOS>MOLECULE
*****
 123 128 0 0 0
SMALL
GASTEIGER

@<TRIPOS>ATOM
     1 C         5.16824   1.74346   0.49923 C.3        1 UNL1     0.0009
     2 C         6.606834   2.548624   -0.348823 C.2        1 UNL1     -0.0787
     3 C         7.88958   2.449563   -1.012748 C.2        1 UNL1     -0.0649
     4 C         8.769167   3.68419   -1.766658 C.2        1 UNL1     -0.0542
     5 C         9.790786   3.976278   -2.703705 C.2        1 UNL1     0.0115
     6 C         10.919685   3.35016   -3.56793 C.3        1 UNL1     -0.0348
     7 C         9.888265   5.459658   -3.309569 C.2        1 UNL1     0.2441
     8 O         10.712311   6.28047   -2.930438 O.2        1 UNL1     -0.2702
     9 N         9.139897   5.667665   -4.481248 N.am        1 UNL1     -0.2772
     10 C         7.857067   6.05534   -4.169197 C.2        1 UNL1     0.1049
     11 C         7.010031   5.084555   -3.878804 C.2        1 UNL1     0.0801
     12 C         6.558035   7.662628   -2.759773 C.ar        1 UNL1     0.0753
     13 C         5.797371   6.535213   -2.313753 C.ar        1 UNL1     0.0305
     14 C         5.914105   5.22963   -2.959415 C.2        1 UNL1     0.0924
     15 N         7.131739   3.755526   -4.038169 N.pl3        1 UNL1     -0.3170
     16 C         5.860918   3.15734   -3.726014 C.3        1 UNL1     0.1275
     17 N         5.223935   4.112789   -2.74668 N.2        1 UNL1     -0.2557
     18 C         5.00993   3.21757   -4.990883 C.3        1 UNL1     0.0016
     19 C         5.765838   2.533212   -6.118644 C.3        1 UNL1     0.0026
     20 N         6.034245   1.154748   -5.732867 N.3        1 UNL1     -0.3018
     21 C         6.79569   0.99328   -4.492505 C.3        1 UNL1     0.0026
     22 C         6.015934   1.684089   -3.37239 C.3        1 UNL1     0.0016
     23 C         6.479636   0.335204   -6.842199 C.3        1 UNL1     0.0012
     24 C         5.324266   0.083414   -7.823769 C.3        1 UNL1     -0.0339
     25 C         5.342864   1.091375   -8.984685 C.3        1 UNL1     -0.0615
     26 C         5.370765   -1.349057   -8.326408 C.3        1 UNL1     -0.0615
     27 C         6.353691   8.930315   -2.220021 C.ar        1 UNL1     0.1347
     28 C         5.393492   9.200362   -1.261302 C.ar        1 UNL1     0.0342
     29 C         4.690299   8.06636   -0.802256 C.ar        1 UNL1     0.1435
     30 C         4.909365   6.784315   -1.307816 C.ar        1 UNL1     0.0774
     31 O         3.648187   8.180534   0.049784 O.3        1 UNL1     -0.4436
     32 C         2.925656   6.948381   -0.093821 C.3        1 UNL1     0.3143
     33 C         3.938859   5.954585   -0.624858 C.2        1 UNL1     0.2504
     34 C         4.947197   10.566702   -0.820806 C.3        1 UNL1     -0.0327
     35 O         2.562767   6.511552   1.221756 O.2        1 UNL1     -0.4528
     36 C         -0.681367   4.582283   0.819754 C.3        1 UNL1     0.0854
     37 C         -0.986475   3.322259   -0.078451 C.3        1 UNL1     0.0236
     38 C         -1.589235   2.06147   0.70821 C.3        1 UNL1     0.1131
     39 C         -0.865786   1.529482   2.01047 C.3        1 UNL1     0.0200
     40 C         0.79522   1.382497   2.053955 C.3        1 UNL1     0.0661
     41 C         1.755592   0.613229   0.886254 C.3        1 UNL1     0.0091
     42 C         3.46429   0.974506   0.3248 C.3        1 UNL1     0.0661
     43 C         7.509493   7.454479   -3.879443 C.2        1 UNL1     0.2131
     44 O         7.911169   8.352449   -4.597108 O.2        1 UNL1     -0.2851
     45 O         7.167497   9.964875   -2.677014 O.3        1 UNL1     -0.5056
     46 O         3.953629   4.750994   -0.494453 O.2        1 UNL1     -0.2836
     47 C         5.562188   1.313172   1.937854 C.3        1 UNL1     -0.0566
     48 O         3.911525   -0.437011   0.406761 O.3        1 UNL1     -0.3909
     49 C         0.922968   0.381761   -0.354977 C.3        1 UNL1     -0.0577
     50 O         1.395906   2.599715   2.44801 O.3        1 UNL1     -0.3910
     51 O         -0.807595   4.392263   2.210937 O.3        1 UNL1     -0.3753
     52 C         0.059478   3.161264   -1.229543 C.3        1 UNL1     -0.0564
     53 O         -2.191452   1.023297   -0.192821 O.3        1 UNL1     -0.4608
     54 C         -2.415361   -0.28661   0.14175 C.2        1 UNL1     0.3042
     55 O         -1.84341   -1.279945   -0.305461 O.2        1 UNL1     -0.2512
     56 C         -3.446422   -0.464183   1.219755 C.3        1 UNL1     0.0332
     57 C         -1.588028   2.198688   3.270909 C.3        1 UNL1     -0.0567
     58 C         1.852211   7.194747   -1.179432 C.3        1 UNL1     0.0210
     59 C         -1.159453   5.563257   2.946351 C.3        1 UNL1     0.0372
     60 C         0.648496   5.210297   0.591227 C.2        1 UNL1     -0.0208
     61 C         1.560571   5.644463   1.462066 C.2        1 UNL1     0.0882
     62 H         4.693044   2.728014   0.586141 H        1 UNL1     0.0365
     63 H         6.341345   3.602619   -0.243556 H        1 UNL1     0.0576
     64 H         8.346714   1.48239   -1.233458 H        1 UNL1     0.0615
     65 H         8.282382   4.599895   -1.420236 H        1 UNL1     0.0622
     66 H         -1.424934   5.329551   0.508717 H        1 UNL1     0.0645
     67 H         -1.85089   3.632566   -0.69087 H        1 UNL1     0.0362
     68 H         -2.536425   2.49905   1.058747 H        1 UNL1     0.0741
     69 H         -1.198457   0.518608   2.205079 H        1 UNL1     0.0359
     70 H         0.905179   0.72179   2.93511 H        1 UNL1     0.0600
     71 H         1.79769   -0.408109   1.312931 H        1 UNL1     0.0348
     72 H         3.357444   1.46249   1.304479 H        1 UNL1     0.0602
     73 H         0.768027   5.407773   -0.445095 H        1 UNL1     0.0628
     74 H         1.541331   5.433475   2.53181 H        1 UNL1     0.1022
     75 H         10.962997   2.244794   -3.415202 H        1 UNL1     0.0279
     76 H         10.807649   3.433388   -4.646628 H        1 UNL1     0.0279
     77 H         11.92456   3.653893   -3.239793 H        1 UNL1     0.0279
     78 H         9.077888   4.797936   -5.006418 H        1 UNL1     0.1553
     79 H         7.797512   3.327156   -4.654755 H        1 UNL1     0.1484
     80 H         4.047952   2.727404   -4.798261 H        1 UNL1     0.0317
     81 H         4.784599   4.254603   -5.261878 H        1 UNL1     0.0317
     82 H         6.697308   3.063788   -6.365148 H        1 UNL1     0.0428
     83 H         5.141994   2.589175   -7.011245 H        1 UNL1     0.0428
     84 H         6.914673   -0.049873   -4.183495 H        1 UNL1     0.0428
     85 H         7.826245   1.360456   -4.594752 H        1 UNL1     0.0428
     86 H         6.530858   1.432995   -2.463658 H        1 UNL1     0.0317
     87 H         5.035902   1.207259   -3.248834 H        1 UNL1     0.0317
     88 H         7.274724   0.877852   -7.370086 H        1 UNL1     0.0429
     89 H         6.913749   -0.609704   -6.490819 H        1 UNL1     0.0429
     90 H         4.371553   0.182849   -7.290231 H        1 UNL1     0.0308
     91 H         6.291286   1.053762   -9.528911 H        1 UNL1     0.0233
     92 H         4.522719   0.895609   -9.679413 H        1 UNL1     0.0233
     93 H         5.213367   2.125205   -8.642254 H        1 UNL1     0.0233
     94 H         4.674082   -1.479072   -9.161611 H        1 UNL1     0.0233
     95 H         6.375965   -1.586473   -8.685809 H        1 UNL1     0.0233
     96 H         5.101256   -2.05751   -7.538101 H        1 UNL1     0.0233
     97 H         4.152771   10.517377   -0.0821 H        1 UNL1     0.0280
     98 H         5.759776   11.135898   -0.350714 H        1 UNL1     0.0280
     99 H         4.575233   11.131828   -1.691077 H        1 UNL1     0.0280
     100 H         6.701565   10.715726   -3.000668 H        1 UNL1     0.2922
     101 H         4.69829   0.88012   2.441642 H        1 UNL1     0.0236
     102 H         6.012844   2.117949   2.517704 H        1 UNL1     0.0236
     103 H         6.317747   0.509852   1.937572 H        1 UNL1     0.0236
     104 H         4.329717   -0.563631   1.280862 H        1 UNL1     0.2098
     105 H         0.712537   1.280842   -0.928721 H        1 UNL1     0.0234
     106 H         1.292184   -0.406886   -1.010448 H        1 UNL1     0.0234
     107 H         0.0   -0.0   0.0 H        1 UNL1     0.0234
     108 H         1.196507   3.259085   1.755739 H        1 UNL1     0.2098
     109 H         1.083677   3.04679   -0.847938 H        1 UNL1     0.0234
     110 H         -0.172717   2.334574   -1.909551 H        1 UNL1     0.0234
     111 H         0.082349   4.04426   -1.882032 H        1 UNL1     0.0234
     112 H         -3.573001   -1.528094   1.44205 H        1 UNL1     0.0342
     113 H         -3.198484   0.096242   2.119919 H        1 UNL1     0.0342
     114 H         -4.405469   -0.082322   0.843489 H        1 UNL1     0.0342
     115 H         -2.652493   1.931161   3.321241 H        1 UNL1     0.0234
     116 H         -1.138063   1.937462   4.230774 H        1 UNL1     0.0234
     117 H         -1.647466   3.299053   3.210859 H        1 UNL1     0.0234
     118 H         0.950976   7.682301   -0.768249 H        1 UNL1     0.0309
     119 H         2.223278   7.782672   -2.024924 H        1 UNL1     0.0309
     120 H         1.46344   6.263253   -1.605203 H        1 UNL1     0.0309
     121 H         -0.360177   6.291114   2.809466 H        1 UNL1     0.0524
     122 H         -2.092853   6.022429   2.58034 H        1 UNL1     0.0524
     123 H         -1.273225   5.325224   4.000149 H        1 UNL1     0.0524
@<TRIPOS>BOND
     1     1     2    1
     2     1    42    1
     3     2     3    2
     4     3     4    1
     5     4     5    2
     6     5     7    1
     7     6    75    1
     8     6    76    1
     9     6    77    1
    10     7     9   am
    11     9    10    1
    12    10    11    2
    13    10    43    1
    14    11    14    1
    15    11    15    1
    16    12    13   ar
    17    12    27   ar
    18    12    43    1
    19    13    14    1
    20    13    30   ar
    21    14    17    2
    22    15    16    1
    23    16    17    1
    24    16    18    1
    25    16    22    1
    26    18    19    1
    27    19    20    1
    28    20    21    1
    29    21    22    1
    30    23    24    1
    31    23    88    1
    32    23    89    1
    33    24    25    1
    34    24    26    1
    35    24    90    1
    36    25    91    1
    37    25    92    1
    38    25    93    1
    39    26    94    1
    40    26    95    1
    41    26    96    1
    42    27    28   ar
    43    28    29   ar
    44    29    30   ar
    45    29    31    1
    46    30    33    1
    47    31    32    1
    48    32    33    1
    49    32    35    1
    50    34    97    1
    51    34    98    1
    52    34    99    1
    53    35    61    1
    54    36    37    1
    55    36    60    1
    56    37    38    1
    57    38    39    1
    58    39    40    1
    59    40    41    1
    60    41    42    1
    61    45   100    1
    62    47   101    1
    63    47   102    1
    64    47   103    1
    65    48   104    1
    66    49   105    1
    67    49   106    1
    68    49   107    1
    69    50   108    1
    70    51    59    1
    71    52   109    1
    72    52   110    1
    73    52   111    1
    74    53    54    1
    75    54    55    2
    76    54    56    1
    77    56   112    1
    78    56   113    1
    79    56   114    1
    80    57   115    1
    81    57   116    1
    82    57   117    1
    83    58   118    1
    84    58   119    1
    85    58   120    1
    86    59   121    1
    87    59   122    1
    88    59   123    1
    89    60    61    2
    90     1    47    1
    91     1    62    1
    92     2    63    1
    93     3    64    1
    94     4    65    1
    95     5     6    1
    96     7     8    2
    97     9    78    1
    98    15    79    1
    99    18    80    1
   100    18    81    1
   101    19    82    1
   102    19    83    1
   103    20    23    1
   104    21    84    1
   105    21    85    1
   106    22    86    1
   107    22    87    1
   108    27    45    1
   109    28    34    1
   110    32    58    1
   111    33    46    2
   112    36    51    1
   113    36    66    1
   114    37    52    1
   115    37    67    1
   116    38    53    1
   117    38    68    1
   118    42    48    1
   119    42    72    1
   120    43    44    2
   121    60    73    1
   122    61    74    1
   123    39    69    1
   124    39    57    1
   125    40    70    1
   126    40    50    1
   127    41    71    1
   128    41    49    1
