@<TRIPOS>MOLECULE
*****
 123 128 0 0 0
SMALL
GASTEIGER

@<TRIPOS>ATOM
     1 C         3.365881   -3.652816   0.345345 C.3        1 UNL1     0.0009
     2 C         5.142853   -3.8713   -0.135981 C.2        1 UNL1     -0.0787
     3 C         6.157472   -4.53596   -0.926437 C.2        1 UNL1     -0.0649
     4 C         7.808506   -4.172696   -1.018535 C.2        1 UNL1     -0.0542
     5 C         8.98844   -4.319629   -1.788759 C.2        1 UNL1     0.0115
     6 C         9.610669   -5.057248   -3.006163 C.3        1 UNL1     -0.0348
     7 C         10.224916   -3.334118   -1.511478 C.2        1 UNL1     0.2441
     8 O         11.214076   -3.670333   -0.875043 O.2        1 UNL1     -0.2702
     9 N         10.213782   -2.148348   -2.266446 N.am        1 UNL1     -0.2772
     10 C         9.498972   -1.170308   -1.613908 C.2        1 UNL1     0.1049
     11 C         8.188066   -1.205017   -1.770573 C.2        1 UNL1     0.0801
     12 C         9.242498   -0.049231   0.60752 C.ar        1 UNL1     0.0753
     13 C         7.8387   -0.299566   0.483854 C.ar        1 UNL1     0.0305
     14 C         7.252556   -0.768059   -0.769941 C.2        1 UNL1     0.0924
     15 N         7.43966   -1.913747   -2.633195 N.pl3        1 UNL1     -0.3170
     16 C         6.079753   -1.459946   -2.510836 C.3        1 UNL1     0.1275
     17 N         5.975883   -0.955728   -1.09214 N.2        1 UNL1     -0.2557
     18 C         5.92944   -0.234916   -3.407725 C.3        1 UNL1     0.0016
     19 C         6.339913   -0.614089   -4.821702 C.3        1 UNL1     0.0026
     20 N         5.490568   -1.705366   -5.278598 N.3        1 UNL1     -0.3018
     21 C         5.520261   -2.907864   -4.443442 C.3        1 UNL1     0.0026
     22 C         5.10015   -2.504699   -3.028925 C.3        1 UNL1     0.0016
     23 C         5.593887   -1.941221   -6.704901 C.3        1 UNL1     0.0012
     24 C         4.202621   -2.175225   -7.31431 C.3        1 UNL1     -0.0339
     25 C         4.254534   -2.175236   -8.850982 C.3        1 UNL1     -0.0615
     26 C         3.60803   -3.46459   -6.77507 C.3        1 UNL1     -0.0615
     27 C         9.776443   0.5111   1.765556 C.ar        1 UNL1     0.1347
     28 C         9.004218   0.898003   2.846308 C.ar        1 UNL1     0.0342
     29 C         7.631251   0.597026   2.721649 C.ar        1 UNL1     0.1435
     30 C         7.087282   0.002859   1.582227 C.ar        1 UNL1     0.0774
     31 O         6.732776   1.010339   3.641932 O.3        1 UNL1     -0.4436
     32 C         5.467614   0.949997   2.966211 C.3        1 UNL1     0.3143
     33 C         5.664406   -0.050759   1.845508 C.2        1 UNL1     0.2504
     34 C         9.469074   1.729116   4.009605 C.3        1 UNL1     -0.0327
     35 O         4.524416   0.374496   3.878586 O.2        1 UNL1     -0.4528
     36 C         1.156428   1.875837   2.978187 C.3        1 UNL1     0.0854
     37 C         0.39058   1.850012   1.599662 C.3        1 UNL1     0.0236
     38 C         -1.099002   1.259571   1.665017 C.3        1 UNL1     0.1131
     39 C         -1.359861   -0.138036   2.358499 C.3        1 UNL1     0.0200
     40 C         -0.337261   -1.425276   2.076115 C.3        1 UNL1     0.0661
     41 C         0.168798   -1.976946   0.553888 C.3        1 UNL1     0.0091
     42 C         1.747474   -2.753392   0.03397 C.3        1 UNL1     0.0661
     43 C         10.09946   -0.323224   -0.572651 C.2        1 UNL1     0.2131
     44 O         11.190115   0.18973   -0.746109 O.2        1 UNL1     -0.2851
     45 O         11.158363   0.679855   1.822644 O.3        1 UNL1     -0.5056
     46 O         4.836696   -0.750973   1.306576 O.2        1 UNL1     -0.2836
     47 C         2.905476   -4.824039   1.254325 C.3        1 UNL1     -0.0566
     48 O         1.092041   -3.849903   -0.719147 O.3        1 UNL1     -0.3909
     49 C         -0.169569   -0.928537   -0.482375 C.3        1 UNL1     -0.0577
     50 O         0.757547   -1.401002   2.96972 O.3        1 UNL1     -0.3910
     51 O         0.514923   1.224929   4.051602 O.3        1 UNL1     -0.3753
     52 C         1.352968   1.547463   0.404998 C.3        1 UNL1     -0.0564
     53 O         -1.919711   1.563986   0.445962 O.3        1 UNL1     -0.4608
     54 C         -3.283553   1.694669   0.417913 C.2        1 UNL1     0.3042
     55 O         -4.109411   1.045035   1.058048 O.2        1 UNL1     -0.2512
     56 C         -3.762895   2.808057   -0.469393 C.3        1 UNL1     0.0332
     57 C         -1.798359   0.14786   3.869842 C.3        1 UNL1     -0.0567
     58 C         5.233506   2.349065   2.350312 C.3        1 UNL1     0.0210
     59 C         -0.710244   0.576501   3.713411 C.3        1 UNL1     0.0372
     60 C         2.550572   1.356734   2.932851 C.2        1 UNL1     -0.0208
     61 C         3.191807   0.52832   3.758255 C.2        1 UNL1     0.0882
     62 H         3.667187   -2.837488   1.01405 H        1 UNL1     0.0365
     63 H         5.627602   -3.178407   0.55495 H        1 UNL1     0.0576
     64 H         5.896664   -5.26751   -1.6945 H        1 UNL1     0.0615
     65 H         7.976171   -3.504827   -0.169228 H        1 UNL1     0.0622
     66 H         1.240219   2.94303   3.227439 H        1 UNL1     0.0645
     67 H         0.195401   2.914362   1.381432 H        1 UNL1     0.0362
     68 H         -1.563593   2.005426   2.327873 H        1 UNL1     0.0741
     69 H         -2.316774   -0.518111   2.026433 H        1 UNL1     0.0359
     70 H         -0.972044   -2.256238   2.438901 H        1 UNL1     0.0600
     71 H         -0.610959   -2.738151   0.355133 H        1 UNL1     0.0348
     72 H         1.695491   -2.87371   1.12582 H        1 UNL1     0.0602
     73 H         3.082902   1.852583   2.159543 H        1 UNL1     0.0628
     74 H         2.708642   -0.061889   4.537641 H        1 UNL1     0.1022
     75 H         8.928053   -5.86433   -3.366287 H        1 UNL1     0.0279
     76 H         9.766905   -4.464381   -3.904588 H        1 UNL1     0.0279
     77 H         10.508017   -5.63493   -2.740171 H        1 UNL1     0.0279
     78 H         9.757281   -2.316411   -3.16056 H        1 UNL1     0.1553
     79 H         7.800453   -2.330343   -3.471771 H        1 UNL1     0.1484
     80 H         4.888756   0.109217   -3.371451 H        1 UNL1     0.0317
     81 H         6.546505   0.593962   -3.044625 H        1 UNL1     0.0317
     82 H         7.403191   -0.890361   -4.876722 H        1 UNL1     0.0428
     83 H         6.22685   0.274144   -5.444043 H        1 UNL1     0.0428
     84 H         4.814838   -3.681275   -4.762855 H        1 UNL1     0.0428
     85 H         6.498345   -3.407167   -4.480385 H        1 UNL1     0.0428
     86 H         5.00461   -3.424372   -2.482058 H        1 UNL1     0.0317
     87 H         4.077303   -2.108783   -3.040338 H        1 UNL1     0.0317
     88 H         6.032463   -1.047617   -7.167952 H        1 UNL1     0.0429
     89 H         6.267713   -2.77987   -6.922617 H        1 UNL1     0.0429
     90 H         3.528181   -1.374799   -6.987719 H        1 UNL1     0.0308
     91 H         3.514316   -2.86101   -9.273939 H        1 UNL1     0.0233
     92 H         4.078476   -1.170954   -9.243451 H        1 UNL1     0.0233
     93 H         5.233182   -2.486704   -9.235781 H        1 UNL1     0.0233
     94 H         4.406019   -4.146949   -6.462926 H        1 UNL1     0.0233
     95 H         2.985225   -3.2522   -5.90159 H        1 UNL1     0.0233
     96 H         2.997713   -3.968754   -7.529591 H        1 UNL1     0.0233
     97 H         10.136876   1.176752   4.663948 H        1 UNL1     0.0280
     98 H         10.030157   2.615789   3.686721 H        1 UNL1     0.0280
     99 H         8.598158   2.056075   4.600958 H        1 UNL1     0.0280
     100 H         11.447787   1.336501   2.431473 H        1 UNL1     0.2922
     101 H         1.954418   -4.573269   1.723644 H        1 UNL1     0.0236
     102 H         3.656907   -5.120076   1.985555 H        1 UNL1     0.0236
     103 H         2.699363   -5.740424   0.676443 H        1 UNL1     0.0236
     104 H         1.607828   -3.99592   -1.536223 H        1 UNL1     0.2098
     105 H         0.453442   -0.959602   -1.372714 H        1 UNL1     0.0234
     106 H         -1.222769   -0.885531   -0.759587 H        1 UNL1     0.0234
     107 H         0.0   0.0   0.0 H        1 UNL1     0.0234
     108 H         0.665995   -2.172341   3.561686 H        1 UNL1     0.2098
     109 H         2.399298   1.452826   0.72741 H        1 UNL1     0.0234
     110 H         1.063762   0.658758   -0.166236 H        1 UNL1     0.0234
     111 H         1.342804   2.356276   -0.337744 H        1 UNL1     0.0234
     112 H         -4.85624   2.85008   -0.456088 H        1 UNL1     0.0342
     113 H         -3.331571   3.76836   -0.190783 H        1 UNL1     0.0342
     114 H         -3.446856   2.587131   -1.498215 H        1 UNL1     0.0342
     115 H         -2.889897   0.221422   3.971435 H        1 UNL1     0.0234
     116 H         -1.452176   -0.603593   4.582249 H        1 UNL1     0.0234
     117 H         -1.482681   1.138614   4.239567 H        1 UNL1     0.0234
     118 H         6.12229   2.997349   2.444102 H        1 UNL1     0.0309
     119 H         4.927634   2.310403   1.300003 H        1 UNL1     0.0309
     120 H         4.453183   2.913146   2.87282 H        1 UNL1     0.0309
     121 H         -0.666624   -0.437806   4.109182 H        1 UNL1     0.0524
     122 H         -1.584911   1.07227   4.16641 H        1 UNL1     0.0524
     123 H         -0.837723   0.552856   2.634855 H        1 UNL1     0.0524
@<TRIPOS>BOND
     1     1     2    1
     2     1    42    1
     3     2     3    2
     4     3     4    1
     5     4     5    2
     6     5     7    1
     7     6    75    1
     8     6    76    1
     9     6    77    1
    10     7     9   am
    11     9    10    1
    12    10    11    2
    13    10    43    1
    14    11    14    1
    15    11    15    1
    16    12    13   ar
    17    12    27   ar
    18    12    43    1
    19    13    14    1
    20    13    30   ar
    21    14    17    2
    22    15    16    1
    23    16    17    1
    24    16    18    1
    25    16    22    1
    26    18    19    1
    27    19    20    1
    28    20    21    1
    29    21    22    1
    30    23    24    1
    31    23    88    1
    32    23    89    1
    33    24    25    1
    34    24    26    1
    35    24    90    1
    36    25    91    1
    37    25    92    1
    38    25    93    1
    39    26    94    1
    40    26    95    1
    41    26    96    1
    42    27    28   ar
    43    28    29   ar
    44    29    30   ar
    45    29    31    1
    46    30    33    1
    47    31    32    1
    48    32    33    1
    49    32    35    1
    50    34    97    1
    51    34    98    1
    52    34    99    1
    53    35    61    1
    54    36    37    1
    55    36    60    1
    56    37    38    1
    57    38    39    1
    58    39    40    1
    59    40    41    1
    60    41    42    1
    61    45   100    1
    62    47   101    1
    63    47   102    1
    64    47   103    1
    65    48   104    1
    66    49   105    1
    67    49   106    1
    68    49   107    1
    69    50   108    1
    70    51    59    1
    71    52   109    1
    72    52   110    1
    73    52   111    1
    74    53    54    1
    75    54    55    2
    76    54    56    1
    77    56   112    1
    78    56   113    1
    79    56   114    1
    80    57   115    1
    81    57   116    1
    82    57   117    1
    83    58   118    1
    84    58   119    1
    85    58   120    1
    86    59   121    1
    87    59   122    1
    88    59   123    1
    89    60    61    2
    90     1    47    1
    91     1    62    1
    92     2    63    1
    93     3    64    1
    94     4    65    1
    95     5     6    1
    96     7     8    2
    97     9    78    1
    98    15    79    1
    99    18    80    1
   100    18    81    1
   101    19    82    1
   102    19    83    1
   103    20    23    1
   104    21    84    1
   105    21    85    1
   106    22    86    1
   107    22    87    1
   108    27    45    1
   109    28    34    1
   110    32    58    1
   111    33    46    2
   112    36    51    1
   113    36    66    1
   114    37    52    1
   115    37    67    1
   116    38    53    1
   117    38    68    1
   118    42    48    1
   119    42    72    1
   120    43    44    2
   121    60    73    1
   122    61    74    1
   123    39    69    1
   124    39    57    1
   125    40    70    1
   126    40    50    1
   127    41    71    1
   128    41    49    1
