@<TRIPOS>MOLECULE
*****
 123 128 0 0 0
SMALL
GASTEIGER

@<TRIPOS>ATOM
     1 C         4.016799   2.204905   2.839528 C.3        1 UNL1     0.0009
     2 C         5.68428   3.012245   2.770649 C.2        1 UNL1     -0.0787
     3 C         7.128501   2.91652   2.803965 C.2        1 UNL1     -0.0649
     4 C         8.259364   4.149107   2.542745 C.2        1 UNL1     -0.0542
     5 C         9.604451   4.438138   2.204692 C.2        1 UNL1     0.0115
     6 C         11.010596   3.811152   1.997406 C.3        1 UNL1     -0.0348
     7 C         9.977386   5.913857   1.694631 C.2        1 UNL1     0.2441
     8 O         10.517522   6.747854   2.408232 O.2        1 UNL1     -0.2702
     9 N         9.881356   6.098282   0.304337 N.am        1 UNL1     -0.2772
     10 C         8.605066   6.4777   -0.042719 C.2        1 UNL1     0.1049
     11 C         7.72431   5.502808   -0.177173 C.2        1 UNL1     0.0801
     12 C         6.786513   8.091611   0.545066 C.ar        1 UNL1     0.0753
     13 C         5.907324   6.963113   0.591208 C.ar        1 UNL1     0.0305
     14 C         6.321612   5.649907   0.102427 C.2        1 UNL1     0.0924
     15 N         7.910053   4.17295   -0.236362 N.pl3        1 UNL1     -0.3170
     16 C         6.646158   3.566767   -0.560964 C.3        1 UNL1     0.1275
     17 N         5.616035   4.529435   -0.022596 N.2        1 UNL1     -0.2557
     18 C         6.504976   3.601142   -2.07971 C.3        1 UNL1     0.0016
     19 C         7.71007   2.908628   -2.695959 C.3        1 UNL1     0.0026
     20 N         7.763534   1.538333   -2.205592 N.3        1 UNL1     -0.3018
     21 C         7.838051   1.40152   -0.749536 C.3        1 UNL1     0.0026
     22 C         6.615674   2.100145   -0.151529 C.3        1 UNL1     0.0016
     23 C         8.687492   0.707876   -2.952109 C.3        1 UNL1     0.0012
     24 C         8.146063   0.434849   -4.364224 C.3        1 UNL1     -0.0339
     25 C         9.099414   0.970129   -5.445267 C.3        1 UNL1     -0.0615
     26 C         7.877494   -1.049536   -4.541011 C.3        1 UNL1     -0.0615
     27 C         6.346131   9.364603   0.89957 C.ar        1 UNL1     0.1347
     28 C         5.04349   9.638527   1.276589 C.ar        1 UNL1     0.0342
     29 C         4.208523   8.504185   1.361801 C.ar        1 UNL1     0.1435
     30 C         4.645476   7.217454   1.044599 C.ar        1 UNL1     0.0774
     31 O         2.885384   8.619978   1.608585 O.3        1 UNL1     -0.4436
     32 C         2.322325   7.378956   1.157251 C.3        1 UNL1     0.3143
     33 C         3.468012   6.387834   1.193181 C.2        1 UNL1     0.2504
     34 C         4.438083   11.006419   1.426435 C.3        1 UNL1     -0.0327
     35 O         1.374413   6.956885   2.145467 O.2        1 UNL1     -0.4528
     36 C         -1.276957   4.990639   0.271379 C.3        1 UNL1     0.0854
     37 C         -1.112069   3.715365   -0.641862 C.3        1 UNL1     0.0236
     38 C         -2.015573   2.459777   -0.218869 C.3        1 UNL1     0.1131
     39 C         -2.003345   1.952985   1.279557 C.3        1 UNL1     0.0200
     40 C         -0.565876   1.822844   2.11573 C.3        1 UNL1     0.0661
     41 C         0.83799   1.046877   1.563784 C.3        1 UNL1     0.0091
     42 C         2.606131   1.417003   1.883291 C.3        1 UNL1     0.0661
     43 C         8.158463   7.87726   0.021553 C.2        1 UNL1     0.2131
     44 O         8.853107   8.769074   -0.431078 O.2        1 UNL1     -0.2851
     45 O         7.277403   10.400626   0.870813 O.3        1 UNL1     -0.5056
     46 O         3.420832   5.186369   1.334986 O.2        1 UNL1     -0.2836
     47 C         3.674274   1.798472   4.298113 C.3        1 UNL1     -0.0566
     48 O         2.962173   0.011193   2.193208 O.3        1 UNL1     -0.3909
     49 C         0.702168   0.790102   0.079495 C.3        1 UNL1     -0.0577
     50 O         -0.229719   3.051216   2.728774 O.3        1 UNL1     -0.3910
     51 O         -2.053825   4.818701   1.435142 O.3        1 UNL1     -0.3753
     52 C         0.35779   3.548648   -1.14849 C.3        1 UNL1     -0.0564
     53 O         -2.110559   1.40338   -1.280627 O.3        1 UNL1     -0.4608
     54 C         -3.17781   1.212036   -2.118656 C.2        1 UNL1     0.3042
     55 O         -4.045708   0.343802   -2.036429 O.2        1 UNL1     -0.2512
     56 C         -3.27861   2.240885   -3.208621 C.3        1 UNL1     0.0332
     57 C         -3.242416   2.632517   2.028634 C.3        1 UNL1     -0.0567
     58 C         1.899641   7.599753   -0.313843 C.3        1 UNL1     0.0210
     59 C         -2.926516   3.690102   1.411927 C.3        1 UNL1     0.0372
     60 C         -0.001355   5.628381   0.697155 C.2        1 UNL1     -0.0208
     61 C         0.381251   6.083466   1.890996 C.2        1 UNL1     0.0882
     62 H         3.556141   3.185882   2.671628 H        1 UNL1     0.0365
     63 H         5.398775   4.064954   2.718127 H        1 UNL1     0.0576
     64 H         7.637365   1.950891   2.845489 H        1 UNL1     0.0615
     65 H         7.66435   5.064729   2.598223 H        1 UNL1     0.0622
     66 H         -1.782096   5.726227   -0.37033 H        1 UNL1     0.0645
     67 H         -1.578069   4.008695   -1.598607 H        1 UNL1     0.0362
     68 H         -3.015774   2.892904   -0.372234 H        1 UNL1     0.0741
     69 H         -2.386634   0.941706   1.308062 H        1 UNL1     0.0359
     70 H         -0.890189   1.175522   2.952901 H        1 UNL1     0.0600
     71 H         0.67252   0.032012   1.975641 H        1 UNL1     0.0348
     72 H         2.042094   1.917457   2.683743 H        1 UNL1     0.0602
     73 H         0.599628   5.812629   -0.158486 H        1 UNL1     0.0628
     74 H         -0.147681   5.887151   2.824231 H        1 UNL1     0.1022
     75 H         11.263589   3.127545   2.843403 H        1 UNL1     0.0279
     76 H         11.130831   3.16541   1.13044 H        1 UNL1     0.0279
     77 H         11.820877   4.551603   2.067245 H        1 UNL1     0.0279
     78 H         10.080182   5.220791   -0.171642 H        1 UNL1     0.1553
     79 H         8.790659   3.742595   -0.451444 H        1 UNL1     0.1484
     80 H         5.569234   3.104323   -2.363125 H        1 UNL1     0.0317
     81 H         6.434998   4.632069   -2.44295 H        1 UNL1     0.0317
     82 H         8.644767   3.444807   -2.475127 H        1 UNL1     0.0428
     83 H         7.589949   2.946117   -3.77911 H        1 UNL1     0.0428
     84 H         7.79648   0.363963   -0.403763 H        1 UNL1     0.0428
     85 H         8.790934   1.77729   -0.351884 H        1 UNL1     0.0428
     86 H         6.632835   1.866713   0.8969 H        1 UNL1     0.0317
     87 H         5.697143   1.615525   -0.504434 H        1 UNL1     0.0317
     88 H         9.638259   1.249567   -3.041034 H        1 UNL1     0.0429
     89 H         8.899637   -0.229162   -2.421329 H        1 UNL1     0.0429
     90 H         7.174827   0.930663   -4.478599 H        1 UNL1     0.0308
     91 H         8.998185   0.408083   -6.378519 H        1 UNL1     0.0233
     92 H         8.906926   2.027636   -5.640809 H        1 UNL1     0.0233
     93 H         10.152015   0.901325   -5.145047 H        1 UNL1     0.0233
     94 H         6.839325   -1.211281   -4.850654 H        1 UNL1     0.0233
     95 H         8.528798   -1.456982   -5.319313 H        1 UNL1     0.0233
     96 H         8.05074   -1.599829   -3.611962 H        1 UNL1     0.0233
     97 H         5.098386   11.786638   1.059708 H        1 UNL1     0.0280
     98 H         3.504892   11.110532   0.857601 H        1 UNL1     0.0280
     99 H         4.228828   11.20281   2.490737 H        1 UNL1     0.0280
     100 H         8.086805   10.211875   1.312247 H        1 UNL1     0.2922
     101 H         2.808778   2.363452   4.643612 H        1 UNL1     0.0236
     102 H         4.520348   1.889653   4.978428 H        1 UNL1     0.0236
     103 H         3.36664   0.742036   4.372268 H        1 UNL1     0.0236
     104 H         2.434904   -0.26242   2.969155 H        1 UNL1     0.2098
     105 H         0.319345   1.633896   -0.489073 H        1 UNL1     0.0234
     106 H         1.596313   0.388129   -0.396793 H        1 UNL1     0.0234
     107 H         0.0   0.0   0.0 H        1 UNL1     0.0234
     108 H         -0.140855   2.882665   3.686616 H        1 UNL1     0.2098
     109 H         1.048053   3.273015   -0.339 H        1 UNL1     0.0234
     110 H         0.450991   2.830227   -1.970029 H        1 UNL1     0.0234
     111 H         0.750017   4.484787   -1.567713 H        1 UNL1     0.0234
     112 H         -4.15983   2.043354   -3.826503 H        1 UNL1     0.0342
     113 H         -3.297881   3.255484   -2.813575 H        1 UNL1     0.0342
     114 H         -2.390751   2.149981   -3.849407 H        1 UNL1     0.0342
     115 H         -3.301285   3.710643   1.825246 H        1 UNL1     0.0234
     116 H         -4.209881   2.196586   1.771683 H        1 UNL1     0.0234
     117 H         -3.148051   2.627934   3.128187 H        1 UNL1     0.0234
     118 H         2.670781   7.252125   -1.023424 H        1 UNL1     0.0309
     119 H         0.944684   7.125869   -0.562221 H        1 UNL1     0.0309
     120 H         1.786003   8.660253   -0.563908 H        1 UNL1     0.0309
     121 H         -3.754104   3.89929   2.089198 H        1 UNL1     0.0524
     122 H         -3.353595   3.512007   0.410966 H        1 UNL1     0.0524
     123 H         -2.395954   2.798078   1.732697 H        1 UNL1     0.0524
@<TRIPOS>BOND
     1     1     2    1
     2     1    42    1
     3     2     3    2
     4     3     4    1
     5     4     5    2
     6     5     7    1
     7     6    75    1
     8     6    76    1
     9     6    77    1
    10     7     9   am
    11     9    10    1
    12    10    11    2
    13    10    43    1
    14    11    14    1
    15    11    15    1
    16    12    13   ar
    17    12    27   ar
    18    12    43    1
    19    13    14    1
    20    13    30   ar
    21    14    17    2
    22    15    16    1
    23    16    17    1
    24    16    18    1
    25    16    22    1
    26    18    19    1
    27    19    20    1
    28    20    21    1
    29    21    22    1
    30    23    24    1
    31    23    88    1
    32    23    89    1
    33    24    25    1
    34    24    26    1
    35    24    90    1
    36    25    91    1
    37    25    92    1
    38    25    93    1
    39    26    94    1
    40    26    95    1
    41    26    96    1
    42    27    28   ar
    43    28    29   ar
    44    29    30   ar
    45    29    31    1
    46    30    33    1
    47    31    32    1
    48    32    33    1
    49    32    35    1
    50    34    97    1
    51    34    98    1
    52    34    99    1
    53    35    61    1
    54    36    37    1
    55    36    60    1
    56    37    38    1
    57    38    39    1
    58    39    40    1
    59    40    41    1
    60    41    42    1
    61    45   100    1
    62    47   101    1
    63    47   102    1
    64    47   103    1
    65    48   104    1
    66    49   105    1
    67    49   106    1
    68    49   107    1
    69    50   108    1
    70    51    59    1
    71    52   109    1
    72    52   110    1
    73    52   111    1
    74    53    54    1
    75    54    55    2
    76    54    56    1
    77    56   112    1
    78    56   113    1
    79    56   114    1
    80    57   115    1
    81    57   116    1
    82    57   117    1
    83    58   118    1
    84    58   119    1
    85    58   120    1
    86    59   121    1
    87    59   122    1
    88    59   123    1
    89    60    61    2
    90     1    47    1
    91     1    62    1
    92     2    63    1
    93     3    64    1
    94     4    65    1
    95     5     6    1
    96     7     8    2
    97     9    78    1
    98    15    79    1
    99    18    80    1
   100    18    81    1
   101    19    82    1
   102    19    83    1
   103    20    23    1
   104    21    84    1
   105    21    85    1
   106    22    86    1
   107    22    87    1
   108    27    45    1
   109    28    34    1
   110    32    58    1
   111    33    46    2
   112    36    51    1
   113    36    66    1
   114    37    52    1
   115    37    67    1
   116    38    53    1
   117    38    68    1
   118    42    48    1
   119    42    72    1
   120    43    44    2
   121    60    73    1
   122    61    74    1
   123    39    69    1
   124    39    57    1
   125    40    70    1
   126    40    50    1
   127    41    71    1
   128    41    49    1
