@<TRIPOS>MOLECULE
*****
 123 128 0 0 0
SMALL
GASTEIGER

@<TRIPOS>ATOM
     1 C         0.702029   3.06779   4.484169 C.3        1 UNL1     0.0009
     2 C         0.884063   4.787022   5.153603 C.2        1 UNL1     -0.0787
     3 C         1.718249   5.853744   5.66574 C.2        1 UNL1     -0.0649
     4 C         1.261096   7.436814   6.054657 C.2        1 UNL1     -0.0542
     5 C         1.721952   8.759771   6.26555 C.2        1 UNL1     0.0115
     6 C         2.993766   9.634368   6.441312 C.3        1 UNL1     -0.0348
     7 C         0.666569   9.968123   6.2104 C.2        1 UNL1     0.2441
     8 O         0.224091   10.511442   7.213167 O.2        1 UNL1     -0.2702
     9 N         0.483847   10.532827   4.936087 N.am        1 UNL1     -0.2772
     10 C         -0.499213   9.858803   4.248623 C.2        1 UNL1     0.1049
     11 C         -0.124447   8.752335   3.632588 C.2        1 UNL1     0.0801
     12 C         -2.834772   8.990627   4.469453 C.ar        1 UNL1     0.0753
     13 C         -2.331357   7.739423   3.990214 C.ar        1 UNL1     0.0305
     14 C         -0.986363   7.619084   3.432037 C.2        1 UNL1     0.0924
     15 N         1.107946   8.275685   3.386537 N.pl3        1 UNL1     -0.3170
     16 C         0.971753   7.124464   2.534248 C.3        1 UNL1     0.1275
     17 N         -0.396222   6.574902   2.857281 N.2        1 UNL1     -0.2557
     18 C         0.895773   7.632017   1.097474 C.3        1 UNL1     0.0016
     19 C         2.125907   8.47987   0.81551 C.3        1 UNL1     0.0026
     20 N         3.314059   7.662981   1.020486 N.3        1 UNL1     -0.3018
     21 C         3.443777   7.078566   2.356899 C.3        1 UNL1     0.0026
     22 C         2.199741   6.227416   2.617307 C.3        1 UNL1     0.0016
     23 C         4.51758   8.276232   0.495028 C.3        1 UNL1     0.0012
     24 C         5.742075   7.855392   1.322834 C.3        1 UNL1     -0.0339
     25 C         6.171541   6.414931   0.999275 C.3        1 UNL1     -0.0615
     26 C         6.879011   8.839279   1.108073 C.3        1 UNL1     -0.0615
     27 C         -4.156684   9.124249   4.887561 C.ar        1 UNL1     0.1347
     28 C         -5.076345   8.091987   4.835514 C.ar        1 UNL1     0.0342
     29 C         -4.545578   6.856976   4.406333 C.ar        1 UNL1     0.1435
     30 C         -3.214397   6.699257   4.018643 C.ar        1 UNL1     0.0774
     31 O         -5.338717   5.783577   4.197166 O.3        1 UNL1     -0.4436
     32 C         -4.565624   4.921206   3.348922 C.3        1 UNL1     0.3143
     33 C         -3.12331   5.319839   3.587741 C.2        1 UNL1     0.2504
     34 C         -6.561636   8.223916   5.026844 C.3        1 UNL1     -0.0327
     35 O         -4.717414   3.586203   3.846898 O.2        1 UNL1     -0.4528
     36 C         -4.389371   1.306485   0.829721 C.3        1 UNL1     0.0854
     37 C         -3.199254   1.178002   -0.197234 C.3        1 UNL1     0.0236
     38 C         -2.606791   -0.302924   -0.363331 C.3        1 UNL1     0.1131
     39 C         -2.194683   -1.13211   0.919201 C.3        1 UNL1     0.0200
     40 C         -1.348913   -0.405045   2.159558 C.3        1 UNL1     0.0661
     41 C         0.054927   0.53191   1.989385 C.3        1 UNL1     0.0091
     42 C         0.655536   1.963924   2.966118 C.3        1 UNL1     0.0661
     43 C         -1.927188   10.163803   4.422451 C.2        1 UNL1     0.2131
     44 O         -2.317709   11.317154   4.419001 O.2        1 UNL1     -0.2851
     45 O         -4.554359   10.364346   5.382992 O.3        1 UNL1     -0.5056
     46 O         -2.125478   4.644266   3.470326 O.2        1 UNL1     -0.2836
     47 C         0.844237   2.026374   5.626627 C.3        1 UNL1     -0.0566
     48 O         2.034973   1.437194   3.103317 O.3        1 UNL1     -0.3909
     49 C         0.229505   0.888812   0.530057 C.3        1 UNL1     -0.0577
     50 O         -2.232409   0.210243   3.075298 O.3        1 UNL1     -0.3910
     51 O         -4.66847   0.156715   1.596249 O.3        1 UNL1     -0.3753
     52 C         -2.281549   2.443954   -0.185667 C.3        1 UNL1     -0.0564
     53 O         -1.736274   -0.469161   -1.574484 O.3        1 UNL1     -0.4608
     54 C         -0.600946   -1.233902   -1.638756 C.2        1 UNL1     0.3042
     55 O         0.565386   -0.843362   -1.607333 O.2        1 UNL1     -0.2512
     56 C         -0.872766   -2.710171   -1.697537 C.3        1 UNL1     0.0332
     57 C         -3.433819   -2.065318   1.308866 C.3        1 UNL1     -0.0567
     58 C         -4.948279   5.280771   1.894337 C.3        1 UNL1     0.0210
     59 C         -5.870348   -0.524426   1.239315 C.3        1 UNL1     0.0372
     60 C         -4.275792   2.442105   1.785036 C.2        1 UNL1     -0.0208
     61 C         -4.485699   2.488773   3.101283 C.2        1 UNL1     0.0882
     62 H         -0.372065   3.250706   4.359371 H        1 UNL1     0.0365
     63 H         -0.161938   5.095667   5.209191 H        1 UNL1     0.0576
     64 H         2.806634   5.765877   5.694141 H        1 UNL1     0.0615
     65 H         0.168726   7.394859   6.075872 H        1 UNL1     0.0622
     66 H         -5.268911   1.523198   0.207232 H        1 UNL1     0.0645
     67 H         -3.675507   1.335425   -1.180576 H        1 UNL1     0.0362
     68 H         -3.495137   -0.81223   -0.767029 H        1 UNL1     0.0741
     69 H         -1.532355   -1.932743   0.618008 H        1 UNL1     0.0359
     70 H         -0.980676   -1.303178   2.691365 H        1 UNL1     0.0600
     71 H         0.827093   -0.252285   2.114903 H        1 UNL1     0.0348
     72 H         -0.079734   1.44999   3.602172 H        1 UNL1     0.0602
     73 H         -4.104385   3.338745   1.242906 H        1 UNL1     0.0628
     74 H         -4.610618   1.611767   3.73728 H        1 UNL1     0.1022
     75 H         2.845494   10.639447   5.977777 H        1 UNL1     0.0279
     76 H         3.272221   9.885996   7.462202 H        1 UNL1     0.0279
     77 H         3.852737   9.255843   5.868086 H        1 UNL1     0.0279
     78 H         1.344554   10.450692   4.398952 H        1 UNL1     0.1553
     79 H         1.938104   8.838864   3.411058 H        1 UNL1     0.1484
     80 H         0.836673   6.773458   0.417658 H        1 UNL1     0.0317
     81 H         -0.013738   8.221141   0.938179 H        1 UNL1     0.0317
     82 H         2.151995   9.381468   1.445077 H        1 UNL1     0.0428
     83 H         2.050519   8.832988   -0.213409 H        1 UNL1     0.0428
     84 H         4.301084   6.406143   2.460263 H        1 UNL1     0.0428
     85 H         3.613052   7.846585   3.124239 H        1 UNL1     0.0428
     86 H         2.389211   5.712717   3.540981 H        1 UNL1     0.0317
     87 H         2.140443   5.415694   1.881993 H        1 UNL1     0.0317
     88 H         4.656365   7.927138   -0.536556 H        1 UNL1     0.0429
     89 H         4.423383   9.369065   0.454808 H        1 UNL1     0.0429
     90 H         5.492411   7.914219   2.388864 H        1 UNL1     0.0308
     91 H         6.146135   5.782375   1.891647 H        1 UNL1     0.0233
     92 H         5.523697   5.981393   0.2338 H        1 UNL1     0.0233
     93 H         7.192225   6.362848   0.601372 H        1 UNL1     0.0233
     94 H         6.87706   9.597199   1.898888 H        1 UNL1     0.0233
     95 H         7.838359   8.315616   1.145378 H        1 UNL1     0.0233
     96 H         6.790962   9.346407   0.143171 H        1 UNL1     0.0233
     97 H         -7.11649   7.877148   4.160172 H        1 UNL1     0.0280
     98 H         -6.92432   7.627532   5.874217 H        1 UNL1     0.0280
     99 H         -6.81876   9.281535   5.201268 H        1 UNL1     0.0280
     100 H         -4.828396   10.356714   6.283251 H        1 UNL1     0.2922
     101 H         -0.046643   1.399929   5.666074 H        1 UNL1     0.0236
     102 H         1.070042   2.47755   6.592254 H        1 UNL1     0.0236
     103 H         1.67346   1.322509   5.444533 H        1 UNL1     0.0236
     104 H         1.970117   0.470856   3.233529 H        1 UNL1     0.2098
     105 H         -0.438781   1.669558   0.175601 H        1 UNL1     0.0234
     106 H         1.255601   1.106767   0.234169 H        1 UNL1     0.0234
     107 H         0.0   0.0   0.0 H        1 UNL1     0.0234
     108 H         -1.699128   0.802866   3.639372 H        1 UNL1     0.2098
     109 H         -2.827898   3.35633   -0.462767 H        1 UNL1     0.0234
     110 H         -1.772898   2.598075   0.772072 H        1 UNL1     0.0234
     111 H         -1.461955   2.356342   -0.911294 H        1 UNL1     0.0234
     112 H         -0.372571   -3.214125   -0.864962 H        1 UNL1     0.0342
     113 H         -1.93923   -2.930311   -1.703572 H        1 UNL1     0.0342
     114 H         -0.44702   -3.100478   -2.632184 H        1 UNL1     0.0342
     115 H         -3.105664   -3.019084   1.744566 H        1 UNL1     0.0234
     116 H         -4.131676   -1.606047   2.0118 H        1 UNL1     0.0234
     117 H         -4.01113   -2.416975   0.436518 H        1 UNL1     0.0234
     118 H         -5.527479   4.476882   1.407206 H        1 UNL1     0.0309
     119 H         -5.504088   6.220535   1.816094 H        1 UNL1     0.0309
     120 H         -4.07326   5.390983   1.24449 H        1 UNL1     0.0309
     121 H         -6.239918   -1.030177   2.130938 H        1 UNL1     0.0524
     122 H         -6.658549   0.167965   0.899654 H        1 UNL1     0.0524
     123 H         -5.673243   -1.247404   0.452838 H        1 UNL1     0.0524
@<TRIPOS>BOND
     1     1     2    1
     2     1    42    1
     3     2     3    2
     4     3     4    1
     5     4     5    2
     6     5     7    1
     7     6    75    1
     8     6    76    1
     9     6    77    1
    10     7     9   am
    11     9    10    1
    12    10    11    2
    13    10    43    1
    14    11    14    1
    15    11    15    1
    16    12    13   ar
    17    12    27   ar
    18    12    43    1
    19    13    14    1
    20    13    30   ar
    21    14    17    2
    22    15    16    1
    23    16    17    1
    24    16    18    1
    25    16    22    1
    26    18    19    1
    27    19    20    1
    28    20    21    1
    29    21    22    1
    30    23    24    1
    31    23    88    1
    32    23    89    1
    33    24    25    1
    34    24    26    1
    35    24    90    1
    36    25    91    1
    37    25    92    1
    38    25    93    1
    39    26    94    1
    40    26    95    1
    41    26    96    1
    42    27    28   ar
    43    28    29   ar
    44    29    30   ar
    45    29    31    1
    46    30    33    1
    47    31    32    1
    48    32    33    1
    49    32    35    1
    50    34    97    1
    51    34    98    1
    52    34    99    1
    53    35    61    1
    54    36    37    1
    55    36    60    1
    56    37    38    1
    57    38    39    1
    58    39    40    1
    59    40    41    1
    60    41    42    1
    61    45   100    1
    62    47   101    1
    63    47   102    1
    64    47   103    1
    65    48   104    1
    66    49   105    1
    67    49   106    1
    68    49   107    1
    69    50   108    1
    70    51    59    1
    71    52   109    1
    72    52   110    1
    73    52   111    1
    74    53    54    1
    75    54    55    2
    76    54    56    1
    77    56   112    1
    78    56   113    1
    79    56   114    1
    80    57   115    1
    81    57   116    1
    82    57   117    1
    83    58   118    1
    84    58   119    1
    85    58   120    1
    86    59   121    1
    87    59   122    1
    88    59   123    1
    89    60    61    2
    90     1    47    1
    91     1    62    1
    92     2    63    1
    93     3    64    1
    94     4    65    1
    95     5     6    1
    96     7     8    2
    97     9    78    1
    98    15    79    1
    99    18    80    1
   100    18    81    1
   101    19    82    1
   102    19    83    1
   103    20    23    1
   104    21    84    1
   105    21    85    1
   106    22    86    1
   107    22    87    1
   108    27    45    1
   109    28    34    1
   110    32    58    1
   111    33    46    2
   112    36    51    1
   113    36    66    1
   114    37    52    1
   115    37    67    1
   116    38    53    1
   117    38    68    1
   118    42    48    1
   119    42    72    1
   120    43    44    2
   121    60    73    1
   122    61    74    1
   123    39    69    1
   124    39    57    1
   125    40    70    1
   126    40    50    1
   127    41    71    1
   128    41    49    1
