@<TRIPOS>MOLECULE
*****
 123 128 0 0 0
SMALL
GASTEIGER

@<TRIPOS>ATOM
     1 C         5.156962   1.771528   0.516432 C.3        1 UNL1     0.0009
     2 C         6.593378   2.586179   -0.326237 C.2        1 UNL1     -0.0787
     3 C         7.878415   2.495415   -0.986908 C.2        1 UNL1     -0.0649
     4 C         8.753227   3.736278   -1.73612 C.2        1 UNL1     -0.0542
     5 C         9.775727   4.035745   -2.669872 C.2        1 UNL1     0.0115
     6 C         10.910347   3.417471   -3.53225 C.3        1 UNL1     -0.0348
     7 C         9.866686   5.520789   -3.272665 C.2        1 UNL1     0.2441
     8 O         10.685203   6.34538   -2.889774 O.2        1 UNL1     -0.2702
     9 N         9.12032   5.726926   -4.44595 N.am        1 UNL1     -0.2772
     10 C         7.834553   6.10697   -4.136606 C.2        1 UNL1     0.1049
     11 C         6.992083   5.131006   -3.850322 C.2        1 UNL1     0.0801
     12 C         6.522967   7.704425   -2.727631 C.ar        1 UNL1     0.0753
     13 C         5.76731   6.572011   -2.285785 C.ar        1 UNL1     0.0305
     14 C         5.892927   5.268321   -2.9336 C.2        1 UNL1     0.0924
     15 N         7.121503   3.80297   -4.011873 N.pl3        1 UNL1     -0.3170
     16 C         5.853153   3.197235   -3.704258 C.3        1 UNL1     0.1275
     17 N         5.208328   4.14731   -2.724829 N.2        1 UNL1     -0.2557
     18 C         5.005228   3.255212   -4.971287 C.3        1 UNL1     0.0016
     19 C         5.767887   2.577157   -6.098311 C.3        1 UNL1     0.0026
     20 N         6.04282   1.199452   -5.714424 N.3        1 UNL1     -0.3018
     21 C         6.801824   1.039795   -4.472333 C.3        1 UNL1     0.0026
     22 C         6.015303   1.724184   -3.353007 C.3        1 UNL1     0.0016
     23 C         6.49566   0.384478   -6.824107 C.3        1 UNL1     0.0012
     24 C         5.345417   0.13188   -7.811473 C.3        1 UNL1     -0.0339
     25 C         5.381345   1.126824   -8.983161 C.3        1 UNL1     -0.0615
     26 C         5.383161   -1.306375   -8.29807 C.3        1 UNL1     -0.0615
     27 C         6.310232   8.969942   -2.186032 C.ar        1 UNL1     0.1347
     28 C         5.34601   9.232896   -1.229381 C.ar        1 UNL1     0.0342
     29 C         4.647825   8.094184   -0.774368 C.ar        1 UNL1     0.1435
     30 C         4.875268   6.814325   -1.281763 C.ar        1 UNL1     0.0774
     31 O         3.602831   8.201021   0.075091 O.3        1 UNL1     -0.4436
     32 C         2.887455   6.965204   -0.072781 C.3        1 UNL1     0.3143
     33 C         3.907508   5.977989   -0.602979 C.2        1 UNL1     0.2504
     34 C         4.891053   10.595927   -0.787499 C.3        1 UNL1     -0.0327
     35 O         2.523456   6.523885   1.24099 O.2        1 UNL1     -0.4528
     36 C         -0.708962   4.577638   0.826645 C.3        1 UNL1     0.0854
     37 C         -1.004756   3.317676   -0.074757 C.3        1 UNL1     0.0236
     38 C         -1.602689   2.052106   0.7079 C.3        1 UNL1     0.1131
     39 C         -0.879814   1.521609   2.011086 C.3        1 UNL1     0.0200
     40 C         0.781852   1.383645   2.058744 C.3        1 UNL1     0.0661
     41 C         1.749543   0.621879   0.892169 C.3        1 UNL1     0.0091
     42 C         3.457727   0.993583   0.335981 C.3        1 UNL1     0.0661
     43 C         7.478538   7.503628   -3.845139 C.2        1 UNL1     0.2131
     44 O         7.877198   8.405152   -4.560024 O.2        1 UNL1     -0.2851
     45 O         7.11957   10.009815   -2.638884 O.3        1 UNL1     -0.5056
     46 O         3.928531   4.774251   -0.474813 O.2        1 UNL1     -0.2836
     47 C         5.549422   1.340664   1.955291 C.3        1 UNL1     -0.0566
     48 O         3.912477   -0.415616   0.41647 O.3        1 UNL1     -0.3909
     49 C         0.921518   0.388217   -0.351725 C.3        1 UNL1     -0.0577
     50 O         1.374798   2.603383   2.45671 O.3        1 UNL1     -0.3910
     51 O         -0.83786   4.384278   2.217123 O.3        1 UNL1     -0.3753
     52 C         0.045134   3.16461   -1.223343 C.3        1 UNL1     -0.0564
     53 O         -2.196795   1.012368   -0.196705 O.3        1 UNL1     -0.4608
     54 C         -2.426544   -0.296209   0.13911 C.2        1 UNL1     0.3042
     55 O         -1.851109   -1.291725   -0.29868 O.2        1 UNL1     -0.2512
     56 C         -3.470063   -0.469042   1.205839 C.3        1 UNL1     0.0332
     57 C         -1.609078   2.184443   3.270847 C.3        1 UNL1     -0.0567
     58 C         1.815578   7.207753   -1.160798 C.3        1 UNL1     0.0210
     59 C         -1.15953   5.560166   2.958527 C.3        1 UNL1     0.0372
     60 C         0.618041   5.213364   0.602871 C.2        1 UNL1     -0.0208
     61 C         1.525393   5.650862   1.476972 C.2        1 UNL1     0.0882
     62 H         4.676143   2.753296   0.603931 H        1 UNL1     0.0365
     63 H         6.321832   3.6385   -0.219689 H        1 UNL1     0.0576
     64 H         8.341435   1.531184   -1.208221 H        1 UNL1     0.0615
     65 H         8.260504   4.648639   -1.389273 H        1 UNL1     0.0622
     66 H         -1.455783   5.321413   0.51503 H        1 UNL1     0.0645
     67 H         -1.869221   3.624409   -0.688902 H        1 UNL1     0.0362
     68 H         -2.553198   2.48382   1.056723 H        1 UNL1     0.0741
     69 H         -1.207453   0.508558   2.202889 H        1 UNL1     0.0359
     70 H         0.89308   0.721872   2.93894 H        1 UNL1     0.0600
     71 H         1.796103   -0.400025   1.317024 H        1 UNL1     0.0348
     72 H         3.34559   1.479106   1.316291 H        1 UNL1     0.0602
     73 H         0.739254   5.413468   -0.432751 H        1 UNL1     0.0628
     74 H         1.504454   5.437733   2.54626 H        1 UNL1     0.1022
     75 H         10.959313   2.312071   -3.381498 H        1 UNL1     0.0279
     76 H         10.800737   3.502141   -4.611086 H        1 UNL1     0.0279
     77 H         11.912661   3.72608   -3.200847 H        1 UNL1     0.0279
     78 H         9.064484   4.857873   -4.972929 H        1 UNL1     0.1553
     79 H         7.79126   3.379431   -4.627482 H        1 UNL1     0.1484
     80 H         4.045442   2.759416   -4.782173 H        1 UNL1     0.0317
     81 H         4.774937   4.29151   -5.240923 H        1 UNL1     0.0317
     82 H         6.697088   3.113299   -6.341313 H        1 UNL1     0.0428
     83 H         5.146131   2.631403   -6.992474 H        1 UNL1     0.0428
     84 H         6.925702   -0.003277   -4.164979 H        1 UNL1     0.0428
     85 H         7.83062   1.412807   -4.571122 H        1 UNL1     0.0428
     86 H         6.529168   1.474184   -2.443375 H        1 UNL1     0.0317
     87 H         5.037574   1.241756   -3.232981 H        1 UNL1     0.0317
     88 H         7.291355   0.931115   -7.346937 H        1 UNL1     0.0429
     89 H         6.931187   -0.560068   -6.473503 H        1 UNL1     0.0429
     90 H         4.389694   0.245378   -7.286188 H        1 UNL1     0.0308
     91 H         6.336914   1.081636   -9.51415 H        1 UNL1     0.0233
     92 H         4.570249   0.92465   -9.686622 H        1 UNL1     0.0233
     93 H         5.249078   2.164609   -8.654006 H        1 UNL1     0.0233
     94 H         4.692709   -1.439182   -9.137994 H        1 UNL1     0.0233
     95 H         6.389266   -1.55686   -8.645882 H        1 UNL1     0.0233
     96 H         5.100197   -2.003666   -7.504542 H        1 UNL1     0.0233
     97 H         4.088675   10.540962   -0.057842 H        1 UNL1     0.0280
     98 H         5.696801   11.165158   -0.305831 H        1 UNL1     0.0280
     99 H         4.52712   11.164086   -1.659189 H        1 UNL1     0.0280
     100 H         6.650399   10.7595   -2.960558 H        1 UNL1     0.2922
     101 H         4.686569   0.901925   2.45594 H        1 UNL1     0.0236
     102 H         5.994107   2.146792   2.537868 H        1 UNL1     0.0236
     103 H         6.309373   0.541498   1.955514 H        1 UNL1     0.0236
     104 H         4.328705   -0.541703   1.291585 H        1 UNL1     0.2098
     105 H         0.707057   1.28733   -0.923927 H        1 UNL1     0.0234
     106 H         1.297221   -0.396631   -1.00807 H        1 UNL1     0.0234
     107 H         0.0   -0.0   0.0 H        1 UNL1     0.0234
     108 H         1.176638   3.262071   1.763434 H        1 UNL1     0.2098
     109 H         1.068924   3.055023   -0.839212 H        1 UNL1     0.0234
     110 H         -0.180707   2.337957   -1.905534 H        1 UNL1     0.0234
     111 H         0.064904   4.04896   -1.874097 H        1 UNL1     0.0234
     112 H         -3.598452   -1.531893   1.432134 H        1 UNL1     0.0342
     113 H         -3.233132   0.096223   2.105941 H        1 UNL1     0.0342
     114 H         -4.424909   -0.089903   0.816369 H        1 UNL1     0.0342
     115 H         -2.677688   1.931147   3.304031 H        1 UNL1     0.0234
     116 H         -1.175253   1.904568   4.232884 H        1 UNL1     0.0234
     117 H         -1.652575   3.286215   3.224487 H        1 UNL1     0.0234
     118 H         0.910587   7.689576   -0.75111 H        1 UNL1     0.0309
     119 H         2.18567   7.799313   -2.004178 H        1 UNL1     0.0309
     120 H         1.433059   6.274955   -1.58937 H        1 UNL1     0.0309
     121 H         -0.341191   6.267419   2.826346 H        1 UNL1     0.0524
     122 H         -2.080096   6.045758   2.594114 H        1 UNL1     0.0524
     123 H         -1.280695   5.319545   4.010912 H        1 UNL1     0.0524
@<TRIPOS>BOND
     1     1     2    1
     2     1    42    1
     3     2     3    2
     4     3     4    1
     5     4     5    2
     6     5     7    1
     7     6    75    1
     8     6    76    1
     9     6    77    1
    10     7     9   am
    11     9    10    1
    12    10    11    2
    13    10    43    1
    14    11    14    1
    15    11    15    1
    16    12    13   ar
    17    12    27   ar
    18    12    43    1
    19    13    14    1
    20    13    30   ar
    21    14    17    2
    22    15    16    1
    23    16    17    1
    24    16    18    1
    25    16    22    1
    26    18    19    1
    27    19    20    1
    28    20    21    1
    29    21    22    1
    30    23    24    1
    31    23    88    1
    32    23    89    1
    33    24    25    1
    34    24    26    1
    35    24    90    1
    36    25    91    1
    37    25    92    1
    38    25    93    1
    39    26    94    1
    40    26    95    1
    41    26    96    1
    42    27    28   ar
    43    28    29   ar
    44    29    30   ar
    45    29    31    1
    46    30    33    1
    47    31    32    1
    48    32    33    1
    49    32    35    1
    50    34    97    1
    51    34    98    1
    52    34    99    1
    53    35    61    1
    54    36    37    1
    55    36    60    1
    56    37    38    1
    57    38    39    1
    58    39    40    1
    59    40    41    1
    60    41    42    1
    61    45   100    1
    62    47   101    1
    63    47   102    1
    64    47   103    1
    65    48   104    1
    66    49   105    1
    67    49   106    1
    68    49   107    1
    69    50   108    1
    70    51    59    1
    71    52   109    1
    72    52   110    1
    73    52   111    1
    74    53    54    1
    75    54    55    2
    76    54    56    1
    77    56   112    1
    78    56   113    1
    79    56   114    1
    80    57   115    1
    81    57   116    1
    82    57   117    1
    83    58   118    1
    84    58   119    1
    85    58   120    1
    86    59   121    1
    87    59   122    1
    88    59   123    1
    89    60    61    2
    90     1    47    1
    91     1    62    1
    92     2    63    1
    93     3    64    1
    94     4    65    1
    95     5     6    1
    96     7     8    2
    97     9    78    1
    98    15    79    1
    99    18    80    1
   100    18    81    1
   101    19    82    1
   102    19    83    1
   103    20    23    1
   104    21    84    1
   105    21    85    1
   106    22    86    1
   107    22    87    1
   108    27    45    1
   109    28    34    1
   110    32    58    1
   111    33    46    2
   112    36    51    1
   113    36    66    1
   114    37    52    1
   115    37    67    1
   116    38    53    1
   117    38    68    1
   118    42    48    1
   119    42    72    1
   120    43    44    2
   121    60    73    1
   122    61    74    1
   123    39    69    1
   124    39    57    1
   125    40    70    1
   126    40    50    1
   127    41    71    1
   128    41    49    1
