@<TRIPOS>MOLECULE
*****
 123 128 0 0 0
SMALL
GASTEIGER

@<TRIPOS>ATOM
     1 C         3.689677   -1.782083   -3.636237 C.3        1 UNL1     0.0009
     2 C         4.202355   -1.801651   -5.417758 C.2        1 UNL1     -0.0787
     3 C         4.284584   -2.480734   -6.69374 C.2        1 UNL1     -0.0649
     4 C         4.832469   -1.858898   -8.170053 C.2        1 UNL1     -0.0542
     5 C         4.811428   -2.020423   -9.577371 C.2        1 UNL1     0.0115
     6 C         4.397656   -2.981142   -10.725908 C.3        1 UNL1     -0.0348
     7 C         5.230572   -0.781304   -10.507904 C.2        1 UNL1     0.2441
     8 O         6.32386   -0.696249   -11.050133 O.2        1 UNL1     -0.2702
     9 N         4.170824   0.068532   -10.869655 N.am        1 UNL1     -0.2772
     10 C         3.997234   1.050136   -9.921161 C.2        1 UNL1     0.1049
     11 C         3.281706   0.716464   -8.862433 C.2        1 UNL1     0.0801
     12 C         5.241295   2.762912   -8.588477 C.ar        1 UNL1     0.0753
     13 C         4.591018   2.222587   -7.433576 C.ar        1 UNL1     0.0305
     14 C         3.490771   1.268304   -7.551273 C.2        1 UNL1     0.0924
     15 N         2.511981   -0.363822   -8.645558 N.pl3        1 UNL1     -0.3170
     16 C         1.813676   -0.163626   -7.403566 C.3        1 UNL1     0.1275
     17 N         2.715711   0.745611   -6.605228 N.2        1 UNL1     -0.2557
     18 C         0.561045   0.649728   -7.715129 C.3        1 UNL1     0.0016
     19 C         -0.243457   -0.083602   -8.776541 C.3        1 UNL1     0.0026
     20 N         -0.58902   -1.405198   -8.271569 N.3        1 UNL1     -0.3018
     21 C         0.550028   -2.240851   -7.886051 C.3        1 UNL1     0.0026
     22 C         1.341471   -1.486972   -6.815921 C.3        1 UNL1     0.0016
     23 C         -1.59878   -2.068535   -9.072202 C.3        1 UNL1     0.0012
     24 C         -2.962283   -1.381654   -8.896679 C.3        1 UNL1     -0.0339
     25 C         -3.658263   -1.159307   -10.249539 C.3        1 UNL1     -0.0615
     26 C         -3.832017   -2.185866   -7.946107 C.3        1 UNL1     -0.0615
     27 C         6.205893   3.761059   -8.472842 C.ar        1 UNL1     0.1347
     28 C         6.573332   4.323855   -7.263586 C.ar        1 UNL1     0.0342
     29 C         5.955559   3.742208   -6.136108 C.ar        1 UNL1     0.1435
     30 C         5.014093   2.716881   -6.233911 C.ar        1 UNL1     0.0774
     31 O         6.126004   4.253053   -4.89716 O.3        1 UNL1     -0.4436
     32 C         5.024017   3.735276   -4.136632 C.3        1 UNL1     0.3143
     33 C         4.591742   2.481125   -4.869064 C.2        1 UNL1     0.2504
     34 C         7.408122   5.561238   -7.084391 C.3        1 UNL1     -0.0327
     35 O         5.541005   3.31943   -2.866574 O.2        1 UNL1     -0.4528
     36 C         2.701784   3.772641   -0.388367 C.3        1 UNL1     0.0854
     37 C         1.251477   3.153259   -0.410647 C.3        1 UNL1     0.0236
     38 C         0.842131   2.343213   0.911475 C.3        1 UNL1     0.1131
     39 C         1.807413   1.225225   1.477694 C.3        1 UNL1     0.0200
     40 C         2.536797   0.136737   0.4454 C.3        1 UNL1     0.0661
     41 C         1.754391   -0.773317   -0.753455 C.3        1 UNL1     0.0091
     42 C         2.355615   -1.35998   -2.384331 C.3        1 UNL1     0.0661
     43 C         4.790267   2.288463   -9.920292 C.2        1 UNL1     0.2131
     44 O         4.958578   2.915313   -10.950568 O.2        1 UNL1     -0.2851
     45 O         6.823413   4.199975   -9.642226 O.3        1 UNL1     -0.5056
     46 O         4.042493   1.49903   -4.422221 O.2        1 UNL1     -0.2836
     47 C         4.65091   -2.658375   -2.788815 C.3        1 UNL1     -0.0566
     48 O         1.863107   -2.74588   -2.195031 O.3        1 UNL1     -0.3909
     49 C         0.369987   -0.204843   -0.971992 C.3        1 UNL1     -0.0577
     50 O         3.7492   0.659552   -0.059046 O.3        1 UNL1     -0.3910
     51 O         3.515395   3.39709   0.699948 O.3        1 UNL1     -0.3753
     52 C         0.848058   2.667791   -1.841215 C.3        1 UNL1     -0.0564
     53 O         -0.629958   2.071082   1.017418 O.3        1 UNL1     -0.4608
     54 C         -1.192892   0.924659   1.514159 C.2        1 UNL1     0.3042
     55 O         -2.378228   0.729017   1.779757 O.2        1 UNL1     -0.2512
     56 C         -0.214111   -0.202732   1.680561 C.3        1 UNL1     0.0332
     57 C         2.712513   1.898556   2.611534 C.3        1 UNL1     -0.0567
     58 C         3.892963   4.785313   -4.234966 C.3        1 UNL1     0.0210
     59 C         3.913152   2.026828   0.706173 C.3        1 UNL1     0.0372
     60 C         3.502399   3.543617   -1.621948 C.2        1 UNL1     -0.0208
     61 C         4.773495   3.168016   -1.770222 C.2        1 UNL1     0.0882
     62 H         4.057721   -0.751708   -3.561516 H        1 UNL1     0.0365
     63 H         4.718847   -0.842347   -5.491523 H        1 UNL1     0.0576
     64 H         3.823662   -3.458169   -6.852733 H        1 UNL1     0.0615
     65 H         5.339914   -0.931755   -7.890073 H        1 UNL1     0.0622
     66 H         2.537573   4.858   -0.3329 H        1 UNL1     0.0645
     67 H         0.584354   4.030372   -0.346013 H        1 UNL1     0.0362
     68 H         0.879572   3.161005   1.647231 H        1 UNL1     0.0741
     69 H         1.24411   0.582265   2.140792 H        1 UNL1     0.0359
     70 H         2.850358   -0.635772   1.173391 H        1 UNL1     0.0600
     71 H         1.523631   -1.69189   -0.17906 H        1 UNL1     0.0348
     72 H         3.254694   -1.12559   -1.796085 H        1 UNL1     0.0602
     73 H         2.938357   3.85251   -2.46675 H        1 UNL1     0.0628
     74 H         5.400665   2.783128   -0.965389 H        1 UNL1     0.1022
     75 H         4.743266   -4.021011   -10.510829 H        1 UNL1     0.0279
     76 H         3.330105   -3.117044   -10.883816 H        1 UNL1     0.0279
     77 H         4.923333   -2.768536   -11.668332 H        1 UNL1     0.0279
     78 H         3.305798   -0.465617   -10.919567 H        1 UNL1     0.1553
     79 H         2.161231   -0.953828   -9.377542 H        1 UNL1     0.1484
     80 H         -0.018257   0.781331   -6.793253 H        1 UNL1     0.0317
     81 H         0.82353   1.653419   -8.066352 H        1 UNL1     0.0317
     82 H         0.305537   -0.15416   -9.727088 H        1 UNL1     0.0428
     83 H         -1.131099   0.514471   -8.984988 H        1 UNL1     0.0428
     84 H         0.26108   -3.195834   -7.43624 H        1 UNL1     0.0428
     85 H         1.158615   -2.528309   -8.754559 H        1 UNL1     0.0428
     86 H         2.084417   -2.178605   -6.464264 H        1 UNL1     0.0317
     87 H         0.712484   -1.31955   -5.933061 H        1 UNL1     0.0317
     88 H         -1.302558   -1.993004   -10.126641 H        1 UNL1     0.0429
     89 H         -1.659991   -3.137604   -8.831123 H        1 UNL1     0.0429
     90 H         -2.814443   -0.407445   -8.41577 H        1 UNL1     0.0308
     91 H         -3.380574   -1.933027   -10.971584 H        1 UNL1     0.0233
     92 H         -4.744118   -1.154251   -10.129118 H        1 UNL1     0.0233
     93 H         -3.396115   -0.194544   -10.700477 H        1 UNL1     0.0233
     94 H         -4.71732   -2.561532   -8.470464 H        1 UNL1     0.0233
     95 H         -3.274166   -3.046706   -7.567004 H        1 UNL1     0.0233
     96 H         -4.163723   -1.57924   -7.098792 H        1 UNL1     0.0233
     97 H         6.881893   6.33061   -6.527274 H        1 UNL1     0.0280
     98 H         8.329888   5.360827   -6.522751 H        1 UNL1     0.0280
     99 H         7.676171   5.971749   -8.071673 H        1 UNL1     0.0280
     100 H         7.145936   3.511491   -10.196836 H        1 UNL1     0.2922
     101 H         5.324833   -2.019207   -2.218772 H        1 UNL1     0.0236
     102 H         5.19057   -3.397475   -3.379985 H        1 UNL1     0.0236
     103 H         4.112138   -3.246619   -2.027312 H        1 UNL1     0.0236
     104 H         1.342676   -2.76359   -1.368104 H        1 UNL1     0.2098
     105 H         0.349712   0.72302   -1.538093 H        1 UNL1     0.0234
     106 H         -0.353425   -0.911386   -1.378684 H        1 UNL1     0.0234
     107 H         -0.0   0.0   0.0 H        1 UNL1     0.0234
     108 H         4.013719   0.100875   -0.81514 H        1 UNL1     0.2098
     109 H         0.842012   3.48806   -2.572538 H        1 UNL1     0.0234
     110 H         1.476874   1.8511   -2.211823 H        1 UNL1     0.0234
     111 H         -0.167216   2.249503   -1.855331 H        1 UNL1     0.0234
     112 H         -0.729808   -1.090466   2.059153 H        1 UNL1     0.0342
     113 H         0.316869   -0.42393   0.755913 H        1 UNL1     0.0342
     114 H         0.531868   0.098207   2.42897 H        1 UNL1     0.0342
     115 H         2.945603   1.192783   3.420695 H        1 UNL1     0.0234
     116 H         3.658656   2.300567   2.243769 H        1 UNL1     0.0234
     117 H         2.196149   2.698891   3.169004 H        1 UNL1     0.0234
     118 H         3.718382   5.297968   -3.272826 H        1 UNL1     0.0309
     119 H         4.068856   5.534628   -5.013292 H        1 UNL1     0.0309
     120 H         2.920186   4.335342   -4.461542 H        1 UNL1     0.0309
     121 H         4.613325   1.890511   1.529903 H        1 UNL1     0.0524
     122 H         3.06321   1.345242   0.876695 H        1 UNL1     0.0524
     123 H         4.388235   1.769087   -0.236143 H        1 UNL1     0.0524
@<TRIPOS>BOND
     1     1     2    1
     2     1    42    1
     3     2     3    2
     4     3     4    1
     5     4     5    2
     6     5     7    1
     7     6    75    1
     8     6    76    1
     9     6    77    1
    10     7     9   am
    11     9    10    1
    12    10    11    2
    13    10    43    1
    14    11    14    1
    15    11    15    1
    16    12    13   ar
    17    12    27   ar
    18    12    43    1
    19    13    14    1
    20    13    30   ar
    21    14    17    2
    22    15    16    1
    23    16    17    1
    24    16    18    1
    25    16    22    1
    26    18    19    1
    27    19    20    1
    28    20    21    1
    29    21    22    1
    30    23    24    1
    31    23    88    1
    32    23    89    1
    33    24    25    1
    34    24    26    1
    35    24    90    1
    36    25    91    1
    37    25    92    1
    38    25    93    1
    39    26    94    1
    40    26    95    1
    41    26    96    1
    42    27    28   ar
    43    28    29   ar
    44    29    30   ar
    45    29    31    1
    46    30    33    1
    47    31    32    1
    48    32    33    1
    49    32    35    1
    50    34    97    1
    51    34    98    1
    52    34    99    1
    53    35    61    1
    54    36    37    1
    55    36    60    1
    56    37    38    1
    57    38    39    1
    58    39    40    1
    59    40    41    1
    60    41    42    1
    61    45   100    1
    62    47   101    1
    63    47   102    1
    64    47   103    1
    65    48   104    1
    66    49   105    1
    67    49   106    1
    68    49   107    1
    69    50   108    1
    70    51    59    1
    71    52   109    1
    72    52   110    1
    73    52   111    1
    74    53    54    1
    75    54    55    2
    76    54    56    1
    77    56   112    1
    78    56   113    1
    79    56   114    1
    80    57   115    1
    81    57   116    1
    82    57   117    1
    83    58   118    1
    84    58   119    1
    85    58   120    1
    86    59   121    1
    87    59   122    1
    88    59   123    1
    89    60    61    2
    90     1    47    1
    91     1    62    1
    92     2    63    1
    93     3    64    1
    94     4    65    1
    95     5     6    1
    96     7     8    2
    97     9    78    1
    98    15    79    1
    99    18    80    1
   100    18    81    1
   101    19    82    1
   102    19    83    1
   103    20    23    1
   104    21    84    1
   105    21    85    1
   106    22    86    1
   107    22    87    1
   108    27    45    1
   109    28    34    1
   110    32    58    1
   111    33    46    2
   112    36    51    1
   113    36    66    1
   114    37    52    1
   115    37    67    1
   116    38    53    1
   117    38    68    1
   118    42    48    1
   119    42    72    1
   120    43    44    2
   121    60    73    1
   122    61    74    1
   123    39    69    1
   124    39    57    1
   125    40    70    1
   126    40    50    1
   127    41    71    1
   128    41    49    1
