@<TRIPOS>MOLECULE
*****
 123 128 0 0 0
SMALL
GASTEIGER

@<TRIPOS>ATOM
     1 C         3.993252   -1.208857   -1.81328 C.3        1 UNL1     0.0009
     2 C         4.591325   -2.608693   -2.871489 C.2        1 UNL1     -0.0787
     3 C         5.045818   -3.976731   -3.005474 C.2        1 UNL1     -0.0649
     4 C         5.380738   -4.827114   -4.430618 C.2        1 UNL1     -0.0542
     5 C         5.531099   -6.112168   -5.007771 C.2        1 UNL1     0.0115
     6 C         5.649008   -7.627657   -4.687281 C.3        1 UNL1     -0.0348
     7 C         5.448066   -6.261445   -6.603957 C.2        1 UNL1     0.2441
     8 O         6.436743   -6.392844   -7.31232 O.2        1 UNL1     -0.2702
     9 N         4.156179   -6.493188   -7.107419 N.am        1 UNL1     -0.2772
     10 C         3.513872   -5.30055   -7.349033 C.2        1 UNL1     0.1049
     11 C         2.934883   -4.729986   -6.308144 C.2        1 UNL1     0.0801
     12 C         3.811511   -3.075205   -8.452022 C.ar        1 UNL1     0.0753
     13 C         3.372495   -2.493651   -7.220085 C.ar        1 UNL1     0.0305
     14 C         2.794802   -3.307444   -6.152817 C.2        1 UNL1     0.0924
     15 N         2.685061   -5.220761   -5.08207 N.pl3        1 UNL1     -0.3170
     16 C         1.881199   -4.256975   -4.378384 C.3        1 UNL1     0.1275
     17 N         2.250648   -2.931733   -4.998839 N.2        1 UNL1     -0.2557
     18 C         0.427279   -4.513911   -4.762832 C.3        1 UNL1     0.0016
     19 C         0.089706   -5.962542   -4.448029 C.3        1 UNL1     0.0026
     20 N         0.304637   -6.194635   -3.026422 N.3        1 UNL1     -0.3018
     21 C         1.660315   -5.914731   -2.548761 C.3        1 UNL1     0.0026
     22 C         1.976736   -4.453271   -2.871105 C.3        1 UNL1     0.0016
     23 C         -0.266516   -7.444774   -2.566442 C.3        1 UNL1     0.0012
     24 C         -0.071793   -7.600211   -1.049972 C.3        1 UNL1     -0.0339
     25 C         -1.413495   -7.539161   -0.301531 C.3        1 UNL1     -0.0615
     26 C         0.677418   -8.886936   -0.750302 C.3        1 UNL1     -0.0615
     27 C         4.248321   -2.281147   -9.509749 C.ar        1 UNL1     0.1347
     28 C         4.253709   -0.898302   -9.467777 C.ar        1 UNL1     0.0342
     29 C         3.863566   -0.349345   -8.227778 C.ar        1 UNL1     0.1435
     30 C         3.457919   -1.13354   -7.147172 C.ar        1 UNL1     0.0774
     31 O         3.711264   0.98288   -8.0635 O.3        1 UNL1     -0.4436
     32 C         2.883386   1.112245   -6.897844 C.3        1 UNL1     0.3143
     33 C         3.079809   -0.177678   -6.127306 C.2        1 UNL1     0.2504
     34 C         4.467027   0.018554   -10.639942 C.3        1 UNL1     -0.0327
     35 O         3.436012   2.164555   -6.097531 O.2        1 UNL1     -0.4528
     36 C         0.504977   3.717105   -4.251803 C.3        1 UNL1     0.0854
     37 C         -0.537884   3.034899   -3.285077 C.3        1 UNL1     0.0236
     38 C         -0.656687   3.709056   -1.834856 C.3        1 UNL1     0.1131
     39 C         0.649555   3.974739   -0.983144 C.3        1 UNL1     0.0200
     40 C         1.844685   2.815209   -0.885209 C.3        1 UNL1     0.0661
     41 C         1.612109   1.178   -0.506969 C.3        1 UNL1     0.0091
     42 C         2.520746   -0.313676   -1.067938 C.3        1 UNL1     0.0661
     43 C         3.701867   -4.547908   -8.59825 C.2        1 UNL1     0.2131
     44 O         3.660404   -5.116187   -9.67439 O.2        1 UNL1     -0.2851
     45 O         4.702003   -2.927956   -10.657464 O.3        1 UNL1     -0.5056
     46 O         2.970616   -0.36828   -4.936675 O.2        1 UNL1     -0.2836
     47 C         5.172838   -0.598019   -1.00989 C.3        1 UNL1     -0.0566
     48 O         2.65307   -0.884901   0.294159 O.3        1 UNL1     -0.3909
     49 C         0.136949   0.859144   -0.605587 C.3        1 UNL1     -0.0577
     50 O         2.751713   2.938169   -1.962197 O.3        1 UNL1     -0.3910
     51 O         1.320988   4.711456   -3.674893 O.3        1 UNL1     -0.3753
     52 C         -0.592837   1.485528   -3.488499 C.3        1 UNL1     -0.0564
     53 O         -1.876212   3.281387   -1.071845 O.3        1 UNL1     -0.4608
     54 C         -2.720398   4.117211   -0.388706 C.2        1 UNL1     0.3042
     55 O         -3.936771   4.23195   -0.534003 O.2        1 UNL1     -0.2512
     56 C         -2.036625   4.918406   0.682394 C.3        1 UNL1     0.0332
     57 C         1.098239   5.487049   -1.247297 C.3        1 UNL1     -0.0567
     58 C         1.423116   1.174096   -7.40313 C.3        1 UNL1     0.0210
     59 C         1.232131   4.809926   -2.254234 C.3        1 UNL1     0.0372
     60 C         1.412797   2.775936   -4.962595 C.2        1 UNL1     -0.0208
     61 C         2.729844   2.832169   -5.165005 C.2        1 UNL1     0.0882
     62 H         3.881172   -0.598494   -2.717496 H        1 UNL1     0.0365
     63 H         4.654016   -2.11626   -3.84414 H        1 UNL1     0.0576
     64 H         5.057603   -4.661903   -2.154881 H        1 UNL1     0.0615
     65 H         5.423685   -4.047061   -5.195574 H        1 UNL1     0.0622
     66 H         -0.109232   4.189749   -5.031162 H        1 UNL1     0.0645
     67 H         -1.517707   3.288325   -3.725851 H        1 UNL1     0.0362
     68 H         -1.023694   4.705457   -2.124706 H        1 UNL1     0.0741
     69 H         0.367833   4.11292   0.052205 H        1 UNL1     0.0359
     70 H         2.404416   3.191921   -0.007798 H        1 UNL1     0.0600
     71 H         1.754032   1.211249   0.591079 H        1 UNL1     0.0348
     72 H         3.18988   0.538164   -1.257527 H        1 UNL1     0.0602
     73 H         0.832878   2.029982   -5.446842 H        1 UNL1     0.0628
     74 H         3.401917   3.528081   -4.661754 H        1 UNL1     0.1022
     75 H         5.484509   -7.811996   -3.598248 H        1 UNL1     0.0279
     76 H         4.911468   -8.280049   -5.149328 H        1 UNL1     0.0279
     77 H         6.670823   -8.012223   -4.820335 H        1 UNL1     0.0279
     78 H         3.606925   -7.002844   -6.418472 H        1 UNL1     0.1553
     79 H         2.672206   -6.200678   -4.866359 H        1 UNL1     0.1484
     80 H         -0.217162   -3.822497   -4.206585 H        1 UNL1     0.0317
     81 H         0.261784   -4.309893   -5.826147 H        1 UNL1     0.0317
     82 H         0.682865   -6.660432   -5.057147 H        1 UNL1     0.0428
     83 H         -0.9507   -6.124617   -4.731465 H        1 UNL1     0.0428
     84 H         1.774156   -6.020152   -1.465369 H        1 UNL1     0.0428
     85 H         2.393718   -6.619752   -2.963951 H        1 UNL1     0.0428
     86 H         2.91623   -4.248023   -2.392342 H        1 UNL1     0.0317
     87 H         1.275017   -3.793418   -2.346432 H        1 UNL1     0.0317
     88 H         -1.343145   -7.427656   -2.780618 H        1 UNL1     0.0429
     89 H         0.155897   -8.29993   -3.109626 H        1 UNL1     0.0429
     90 H         0.56885   -6.788656   -0.68505 H        1 UNL1     0.0308
     91 H         -1.99832   -8.450443   -0.458524 H        1 UNL1     0.0233
     92 H         -1.252193   -7.396612   0.769576 H        1 UNL1     0.0233
     93 H         -2.037747   -6.69981   -0.631129 H        1 UNL1     0.0233
     94 H         0.882514   -8.963381   0.322977 H        1 UNL1     0.0233
     95 H         0.069977   -9.749048   -1.039683 H        1 UNL1     0.0233
     96 H         1.628878   -8.929138   -1.287806 H        1 UNL1     0.0233
     97 H         3.52897   0.380788   -11.0499 H        1 UNL1     0.0280
     98 H         5.040902   0.913539   -10.366216 H        1 UNL1     0.0280
     99 H         5.007106   -0.519699   -11.43599 H        1 UNL1     0.0280
     100 H         5.041256   -2.354362   -11.321934 H        1 UNL1     0.2922
     101 H         5.067948   0.485971   -0.969623 H        1 UNL1     0.0236
     102 H         6.149645   -0.900718   -1.385661 H        1 UNL1     0.0236
     103 H         5.165699   -0.919256   0.045074 H        1 UNL1     0.0236
     104 H         2.786706   -0.141406   0.9141 H        1 UNL1     0.2098
     105 H         -0.517656   1.640435   -0.227581 H        1 UNL1     0.0234
     106 H         -0.193648   0.533687   -1.591848 H        1 UNL1     0.0234
     107 H         0.0   -0.0   0.0 H        1 UNL1     0.0234
     108 H         2.502435   3.739721   -2.46134 H        1 UNL1     0.2098
     109 H         0.070902   1.148315   -4.296862 H        1 UNL1     0.0234
     110 H         -0.3722   0.923369   -2.574694 H        1 UNL1     0.0234
     111 H         -1.599553   1.149875   -3.770997 H        1 UNL1     0.0234
     112 H         -2.677966   5.748991   0.992485 H        1 UNL1     0.0342
     113 H         -1.753334   4.303889   1.535598 H        1 UNL1     0.0342
     114 H         -1.116552   5.343522   0.258241 H        1 UNL1     0.0342
     115 H         0.234769   6.146842   -1.409414 H        1 UNL1     0.0234
     116 H         1.69569   5.919887   -0.442466 H        1 UNL1     0.0234
     117 H         1.650928   5.623182   -2.192783 H        1 UNL1     0.0234
     118 H         0.842737   1.965826   -6.897828 H        1 UNL1     0.0309
     119 H         1.348839   1.311657   -8.486533 H        1 UNL1     0.0309
     120 H         0.860023   0.262795   -7.173863 H        1 UNL1     0.0309
     121 H         1.986843   5.523806   -1.925385 H        1 UNL1     0.0524
     122 H         0.250853   5.187385   -1.921585 H        1 UNL1     0.0524
     123 H         1.409783   3.839998   -1.798411 H        1 UNL1     0.0524
@<TRIPOS>BOND
     1     1     2    1
     2     1    42    1
     3     2     3    2
     4     3     4    1
     5     4     5    2
     6     5     7    1
     7     6    75    1
     8     6    76    1
     9     6    77    1
    10     7     9   am
    11     9    10    1
    12    10    11    2
    13    10    43    1
    14    11    14    1
    15    11    15    1
    16    12    13   ar
    17    12    27   ar
    18    12    43    1
    19    13    14    1
    20    13    30   ar
    21    14    17    2
    22    15    16    1
    23    16    17    1
    24    16    18    1
    25    16    22    1
    26    18    19    1
    27    19    20    1
    28    20    21    1
    29    21    22    1
    30    23    24    1
    31    23    88    1
    32    23    89    1
    33    24    25    1
    34    24    26    1
    35    24    90    1
    36    25    91    1
    37    25    92    1
    38    25    93    1
    39    26    94    1
    40    26    95    1
    41    26    96    1
    42    27    28   ar
    43    28    29   ar
    44    29    30   ar
    45    29    31    1
    46    30    33    1
    47    31    32    1
    48    32    33    1
    49    32    35    1
    50    34    97    1
    51    34    98    1
    52    34    99    1
    53    35    61    1
    54    36    37    1
    55    36    60    1
    56    37    38    1
    57    38    39    1
    58    39    40    1
    59    40    41    1
    60    41    42    1
    61    45   100    1
    62    47   101    1
    63    47   102    1
    64    47   103    1
    65    48   104    1
    66    49   105    1
    67    49   106    1
    68    49   107    1
    69    50   108    1
    70    51    59    1
    71    52   109    1
    72    52   110    1
    73    52   111    1
    74    53    54    1
    75    54    55    2
    76    54    56    1
    77    56   112    1
    78    56   113    1
    79    56   114    1
    80    57   115    1
    81    57   116    1
    82    57   117    1
    83    58   118    1
    84    58   119    1
    85    58   120    1
    86    59   121    1
    87    59   122    1
    88    59   123    1
    89    60    61    2
    90     1    47    1
    91     1    62    1
    92     2    63    1
    93     3    64    1
    94     4    65    1
    95     5     6    1
    96     7     8    2
    97     9    78    1
    98    15    79    1
    99    18    80    1
   100    18    81    1
   101    19    82    1
   102    19    83    1
   103    20    23    1
   104    21    84    1
   105    21    85    1
   106    22    86    1
   107    22    87    1
   108    27    45    1
   109    28    34    1
   110    32    58    1
   111    33    46    2
   112    36    51    1
   113    36    66    1
   114    37    52    1
   115    37    67    1
   116    38    53    1
   117    38    68    1
   118    42    48    1
   119    42    72    1
   120    43    44    2
   121    60    73    1
   122    61    74    1
   123    39    69    1
   124    39    57    1
   125    40    70    1
   126    40    50    1
   127    41    71    1
   128    41    49    1
