@<TRIPOS>MOLECULE
*****
 123 128 0 0 0
SMALL
GASTEIGER

@<TRIPOS>ATOM
     1 C         5.114841   1.906301   0.464939 C.3        1 UNL1     0.0009
     2 C         6.50377   2.795102   -0.382379 C.2        1 UNL1     -0.0787
     3 C         7.778754   2.769234   -1.067793 C.2        1 UNL1     -0.0649
     4 C         8.592354   4.060252   -1.801062 C.2        1 UNL1     -0.0542
     5 C         9.585323   4.420927   -2.744993 C.2        1 UNL1     0.0115
     6 C         10.726012   3.8673   -3.642572 C.3        1 UNL1     -0.0348
     7 C         9.609343   5.922602   -3.311898 C.2        1 UNL1     0.2441
     8 O         10.403408   6.768043   -2.923031 O.2        1 UNL1     -0.2702
     9 N         8.83402   6.128843   -4.466233 N.am        1 UNL1     -0.2772
     10 C         7.540919   6.452233   -4.12472 C.2        1 UNL1     0.1049
     11 C         6.741076   5.438354   -3.848095 C.2        1 UNL1     0.0801
     12 C         6.196949   7.964016   -2.653125 C.ar        1 UNL1     0.0753
     13 C         5.492604   6.793344   -2.226472 C.ar        1 UNL1     0.0305
     14 C         5.654844   5.511529   -2.90888 C.2        1 UNL1     0.0924
     15 N         6.917101   4.12051   -4.045146 N.pl3        1 UNL1     -0.3170
     16 C         5.678284   3.459825   -3.730373 C.3        1 UNL1     0.1275
     17 N         5.016719   4.360624   -2.716166 N.2        1 UNL1     -0.2557
     18 C         4.80529   3.516492   -4.980322 C.3        1 UNL1     0.0016
     19 C         5.571645   2.895501   -6.137327 C.3        1 UNL1     0.0026
     20 N         5.905092   1.520258   -5.79302 N.3        1 UNL1     -0.3018
     21 C         6.692585   1.35925   -4.56897 C.3        1 UNL1     0.0026
     22 C         5.902008   1.985853   -3.419078 C.3        1 UNL1     0.0016
     23 C         6.36735   0.750321   -6.930632 C.3        1 UNL1     0.0012
     24 C         5.209151   0.478456   -7.903474 C.3        1 UNL1     -0.0339
     25 C         5.247444   1.43677   -9.105233 C.3        1 UNL1     -0.0615
     26 C         5.230876   -0.974281   -8.34604 C.3        1 UNL1     -0.0615
     27 C         5.947115   9.206983   -2.076295 C.ar        1 UNL1     0.1347
     28 C         4.991739   9.40981   -1.096413 C.ar        1 UNL1     0.0342
     29 C         4.345297   8.234704   -0.657775 C.ar        1 UNL1     0.1435
     30 C         4.611002   6.977132   -1.201038 C.ar        1 UNL1     0.0774
     31 O         3.313066   8.281124   0.212484 O.3        1 UNL1     -0.4436
     32 C         2.641836   7.023055   0.046392 C.3        1 UNL1     0.3143
     33 C         3.688073   6.088424   -0.526378 C.2        1 UNL1     0.2504
     34 C         4.494383   10.743444   -0.612515 C.3        1 UNL1     -0.0327
     35 O         2.319195   6.536366   1.354936 O.2        1 UNL1     -0.4528
     36 C         -0.845241   4.479695   0.94931 C.3        1 UNL1     0.0854
     37 C         -1.110411   3.231775   0.022 C.3        1 UNL1     0.0236
     38 C         -1.645826   1.925752   0.783171 C.3        1 UNL1     0.1131
     39 C         -0.879402   1.391423   2.059634 C.3        1 UNL1     0.0200
     40 C         0.786864   1.315411   2.074357 C.3        1 UNL1     0.0661
     41 C         1.760468   0.619528   0.872088 C.3        1 UNL1     0.0091
     42 C         3.44286   1.069147   0.295198 C.3        1 UNL1     0.0661
     43 C         7.138353   7.826876   -3.792077 C.2        1 UNL1     0.2131
     44 O         7.489565   8.760019   -4.491099 O.2        1 UNL1     -0.2851
     45 O         6.708353   10.287511   -2.51722 O.3        1 UNL1     -0.5056
     46 O         3.756546   4.883581   -0.428812 O.2        1 UNL1     -0.2836
     47 C         5.549938   1.455676   1.885365 C.3        1 UNL1     -0.0566
     48 O         3.951484   -0.323348   0.332272 O.3        1 UNL1     -0.3909
     49 C         0.91871   0.385044   -0.362398 C.3        1 UNL1     -0.0577
     50 O         1.34104   2.546681   2.492193 O.3        1 UNL1     -0.3910
     51 O         -0.940842   4.247752   2.336571 O.3        1 UNL1     -0.3753
     52 C         -0.077139   3.146649   -1.148491 C.3        1 UNL1     -0.0564
     53 O         -2.217354   0.886605   -0.136533 O.3        1 UNL1     -0.4608
     54 C         -2.360284   -0.444033   0.158261 C.2        1 UNL1     0.3042
     55 O         -1.651016   -1.374016   -0.223719 O.2        1 UNL1     -0.2512
     56 C         -3.493256   -0.732714   1.101529 C.3        1 UNL1     0.0332
     57 C         -1.609345   1.99524   3.34834 C.3        1 UNL1     -0.0567
     58 C         1.541515   7.251257   -1.016033 C.3        1 UNL1     0.0210
     59 C         -1.292431   5.392184   3.112797 C.3        1 UNL1     0.0372
     60 C         0.452618   5.17052   0.718051 C.2        1 UNL1     -0.0208
     61 C         1.359102   5.620653   1.58662 C.2        1 UNL1     0.0882
     62 H         4.59931   2.866718   0.585524 H        1 UNL1     0.0365
     63 H         6.195042   3.833466   -0.244696 H        1 UNL1     0.0576
     64 H         8.273348   1.828924   -1.321373 H        1 UNL1     0.0615
     65 H         8.072368   4.944559   -1.422779 H        1 UNL1     0.0622
     66 H         -1.625075   5.202007   0.66972 H        1 UNL1     0.0645
     67 H         -1.997065   3.520404   -0.568845 H        1 UNL1     0.0362
     68 H         -2.605161   2.312503   1.159498 H        1 UNL1     0.0741
     69 H         -1.165239   0.362309   2.231767 H        1 UNL1     0.0359
     70 H         0.939199   0.63707   2.935581 H        1 UNL1     0.0600
     71 H         1.853182   -0.40993   1.270307 H        1 UNL1     0.0348
     72 H         3.33093   1.526033   1.289201 H        1 UNL1     0.0602
     73 H         0.546909   5.400258   -0.314217 H        1 UNL1     0.0628
     74 H         1.366113   5.380883   2.650434 H        1 UNL1     0.1022
     75 H         10.767413   2.753052   -3.581172 H        1 UNL1     0.0279
     76 H         10.628694   4.039523   -4.712122 H        1 UNL1     0.0279
     77 H         11.726266   4.141897   -3.276799 H        1 UNL1     0.0279
     78 H         8.800945   5.271402   -5.013754 H        1 UNL1     0.1553
     79 H         7.590645   3.737789   -4.682952 H        1 UNL1     0.1484
     80 H         3.86844   2.980217   -4.786708 H        1 UNL1     0.0317
     81 H         4.531363   4.549583   -5.219778 H        1 UNL1     0.0317
     82 H         6.475421   3.472236   -6.383249 H        1 UNL1     0.0428
     83 H         4.931719   2.947924   -7.018687 H        1 UNL1     0.0428
     84 H         6.86115   0.31444   -4.290098 H        1 UNL1     0.0428
     85 H         7.704668   1.77328   -4.676602 H        1 UNL1     0.0428
     86 H         6.441757   1.733408   -2.525249 H        1 UNL1     0.0317
     87 H         4.945441   1.463936   -3.293867 H        1 UNL1     0.0317
     88 H         7.132123   1.339302   -7.453621 H        1 UNL1     0.0429
     89 H         6.844408   -0.185306   -6.611585 H        1 UNL1     0.0429
     90 H         4.257561   0.61688   -7.376664 H        1 UNL1     0.0308
     91 H         6.257097   1.515127   -9.519436 H        1 UNL1     0.0233
     92 H         4.563485   1.101643   -9.888494 H        1 UNL1     0.0233
     93 H         4.933027   2.453195   -8.839043 H        1 UNL1     0.0233
     94 H         4.691746   -1.088846   -9.292639 H        1 UNL1     0.0233
     95 H         6.262401   -1.301408   -8.50385 H        1 UNL1     0.0233
     96 H         4.764098   -1.625267   -7.601524 H        1 UNL1     0.0233
     97 H         3.659272   10.642148   0.074187 H        1 UNL1     0.0280
     98 H         5.26707   11.299809   -0.06601 H        1 UNL1     0.0280
     99 H         4.163106   11.348009   -1.472662 H        1 UNL1     0.0280
     100 H         6.208635   11.05234   -2.742917 H        1 UNL1     0.2922
     101 H         4.686754   1.074704   2.430736 H        1 UNL1     0.0236
     102 H         6.073563   2.233467   2.440199 H        1 UNL1     0.0236
     103 H         6.256383   0.609455   1.853123 H        1 UNL1     0.0236
     104 H         4.302268   -0.485434   1.229852 H        1 UNL1     0.2098
     105 H         0.700456   1.283348   -0.934434 H        1 UNL1     0.0234
     106 H         1.285453   -0.402301   -1.020817 H        1 UNL1     0.0234
     107 H         0.0   -0.0   0.0 H        1 UNL1     0.0234
     108 H         1.159088   3.200047   1.789502 H        1 UNL1     0.2098
     109 H         0.957946   3.079057   -0.785528 H        1 UNL1     0.0234
     110 H         -0.277472   2.321396   -1.840277 H        1 UNL1     0.0234
     111 H         -0.11131   4.041311   -1.784383 H        1 UNL1     0.0234
     112 H         -3.538877   -1.805734   1.311035 H        1 UNL1     0.0342
     113 H         -3.415606   -0.157665   2.023013 H        1 UNL1     0.0342
     114 H         -4.432069   -0.445695   0.608159 H        1 UNL1     0.0342
     115 H         -2.690597   1.800621   3.333962 H        1 UNL1     0.0234
     116 H         -1.220417   1.618174   4.296288 H        1 UNL1     0.0234
     117 H         -1.59182   3.098007   3.387552 H        1 UNL1     0.0234
     118 H         0.534016   7.29545   -0.566589 H        1 UNL1     0.0309
     119 H         1.70512   8.151028   -1.617572 H        1 UNL1     0.0309
     120 H         1.464819   6.421146   -1.726766 H        1 UNL1     0.0309
     121 H         -0.899587   5.242104   4.118036 H        1 UNL1     0.0524
     122 H         -0.845902   6.319497   2.716895 H        1 UNL1     0.0524
     123 H         -2.372189   5.50683   3.145569 H        1 UNL1     0.0524
@<TRIPOS>BOND
     1     1     2    1
     2     1    42    1
     3     2     3    2
     4     3     4    1
     5     4     5    2
     6     5     7    1
     7     6    75    1
     8     6    76    1
     9     6    77    1
    10     7     9   am
    11     9    10    1
    12    10    11    2
    13    10    43    1
    14    11    14    1
    15    11    15    1
    16    12    13   ar
    17    12    27   ar
    18    12    43    1
    19    13    14    1
    20    13    30   ar
    21    14    17    2
    22    15    16    1
    23    16    17    1
    24    16    18    1
    25    16    22    1
    26    18    19    1
    27    19    20    1
    28    20    21    1
    29    21    22    1
    30    23    24    1
    31    23    88    1
    32    23    89    1
    33    24    25    1
    34    24    26    1
    35    24    90    1
    36    25    91    1
    37    25    92    1
    38    25    93    1
    39    26    94    1
    40    26    95    1
    41    26    96    1
    42    27    28   ar
    43    28    29   ar
    44    29    30   ar
    45    29    31    1
    46    30    33    1
    47    31    32    1
    48    32    33    1
    49    32    35    1
    50    34    97    1
    51    34    98    1
    52    34    99    1
    53    35    61    1
    54    36    37    1
    55    36    60    1
    56    37    38    1
    57    38    39    1
    58    39    40    1
    59    40    41    1
    60    41    42    1
    61    45   100    1
    62    47   101    1
    63    47   102    1
    64    47   103    1
    65    48   104    1
    66    49   105    1
    67    49   106    1
    68    49   107    1
    69    50   108    1
    70    51    59    1
    71    52   109    1
    72    52   110    1
    73    52   111    1
    74    53    54    1
    75    54    55    2
    76    54    56    1
    77    56   112    1
    78    56   113    1
    79    56   114    1
    80    57   115    1
    81    57   116    1
    82    57   117    1
    83    58   118    1
    84    58   119    1
    85    58   120    1
    86    59   121    1
    87    59   122    1
    88    59   123    1
    89    60    61    2
    90     1    47    1
    91     1    62    1
    92     2    63    1
    93     3    64    1
    94     4    65    1
    95     5     6    1
    96     7     8    2
    97     9    78    1
    98    15    79    1
    99    18    80    1
   100    18    81    1
   101    19    82    1
   102    19    83    1
   103    20    23    1
   104    21    84    1
   105    21    85    1
   106    22    86    1
   107    22    87    1
   108    27    45    1
   109    28    34    1
   110    32    58    1
   111    33    46    2
   112    36    51    1
   113    36    66    1
   114    37    52    1
   115    37    67    1
   116    38    53    1
   117    38    68    1
   118    42    48    1
   119    42    72    1
   120    43    44    2
   121    60    73    1
   122    61    74    1
   123    39    69    1
   124    39    57    1
   125    40    70    1
   126    40    50    1
   127    41    71    1
   128    41    49    1
