@<TRIPOS>MOLECULE
*****
 123 128 0 0 0
SMALL
GASTEIGER

@<TRIPOS>ATOM
     1 C         5.168836   1.743606   0.491528 C.3        1 UNL1     0.0009
     2 C         6.606733   2.547451   -0.358956 C.2        1 UNL1     -0.0787
     3 C         7.888591   2.447284   -1.024428 C.2        1 UNL1     -0.0649
     4 C         8.767802   3.680925   -1.780388 C.2        1 UNL1     -0.0542
     5 C         9.788372   3.971822   -2.718948 C.2        1 UNL1     0.0115
     6 C         10.915883   3.344518   -3.584124 C.3        1 UNL1     -0.0348
     7 C         9.885778   5.454695   -3.326062 C.2        1 UNL1     0.2441
     8 O         10.710688   6.275408   -2.948597 O.2        1 UNL1     -0.2702
     9 N         9.136026   5.662164   -4.496951 N.am        1 UNL1     -0.2772
     10 C         7.853773   6.050677   -4.183573 C.2        1 UNL1     0.1049
     11 C         7.006651   5.08051   -3.891371 C.2        1 UNL1     0.0801
     12 C         6.557279   7.659644   -2.773729 C.ar        1 UNL1     0.0753
     13 C         5.796651   6.532925   -2.325891 C.ar        1 UNL1     0.0305
     14 C         5.911958   5.226798   -2.970707 C.2        1 UNL1     0.0924
     15 N         7.127535   3.751304   -4.049879 N.pl3        1 UNL1     -0.3170
     16 C         5.85683   3.153951   -3.735663 C.3        1 UNL1     0.1275
     17 N         5.221535   4.110442   -2.75625 N.2        1 UNL1     -0.2557
     18 C         5.004271   3.213619   -4.9995 C.3        1 UNL1     0.0016
     19 C         5.758431   2.528051   -6.127696 C.3        1 UNL1     0.0026
     20 N         6.026681   1.149755   -5.741211 N.3        1 UNL1     -0.3018
     21 C         6.789619   0.988871   -4.50169 C.3        1 UNL1     0.0026
     22 C         6.011604   1.680897   -3.381115 C.3        1 UNL1     0.0016
     23 C         6.470285   0.32916   -6.850482 C.3        1 UNL1     0.0012
     24 C         5.314673   0.080802   -7.832641 C.3        1 UNL1     -0.0339
     25 C         5.351891   1.072406   -9.007117 C.3        1 UNL1     -0.0615
     26 C         5.341945   -1.358937   -8.315536 C.3        1 UNL1     -0.0615
     27 C         6.354211   8.927836   -2.234683 C.ar        1 UNL1     0.1347
     28 C         5.395352   9.199063   -1.274955 C.ar        1 UNL1     0.0342
     29 C         4.69221   8.065739   -0.814159 C.ar        1 UNL1     0.1435
     30 C         4.910035   6.783208   -1.319021 C.ar        1 UNL1     0.0774
     31 O         3.65123   8.181049   0.039112 O.3        1 UNL1     -0.4436
     32 C         2.927941   6.949127   -0.102643 C.3        1 UNL1     0.3143
     33 C         3.940006   5.954452   -0.634205 C.2        1 UNL1     0.2504
     34 C         4.950254   10.565945   -0.834934 C.3        1 UNL1     -0.0327
     35 O         2.566512   6.513467   1.213724 O.2        1 UNL1     -0.4528
     36 C         -0.679031   4.585415   0.817292 C.3        1 UNL1     0.0854
     37 C         -0.985865   3.324853   -0.079569 C.3        1 UNL1     0.0236
     38 C         -1.588219   2.064945   0.708812 C.3        1 UNL1     0.1131
     39 C         -0.863373   1.533607   2.01056 C.3        1 UNL1     0.0200
     40 C         0.797618   1.385875   2.052055 C.3        1 UNL1     0.0661
     41 C         1.756152   0.615271   0.883726 C.3        1 UNL1     0.0091
     42 C         3.464308   0.975319   0.319837 C.3        1 UNL1     0.0661
     43 C         7.507221   7.450199   -3.894443 C.2        1 UNL1     0.2131
     44 O         7.908409   8.347435   -4.613298 O.2        1 UNL1     -0.2851
     45 O         7.167923   9.961667   -2.693491 O.3        1 UNL1     -0.5056
     46 O         3.954377   4.750954   -0.502905 O.2        1 UNL1     -0.2836
     47 C         5.564403   1.314226   1.929979 C.3        1 UNL1     -0.0566
     48 O         3.910985   -0.436345   0.402305 O.3        1 UNL1     -0.3909
     49 C         0.92185   0.38325   -0.356274 C.3        1 UNL1     -0.0577
     50 O         1.399372   2.60311   2.444426 O.3        1 UNL1     -0.3910
     51 O         -0.803588   4.396511   2.208777 O.3        1 UNL1     -0.3753
     52 C         0.058555   3.162493   -1.23186 C.3        1 UNL1     -0.0564
     53 O         -2.192061   1.026371   -0.190667 O.3        1 UNL1     -0.4608
     54 C         -2.42826   -0.27992   0.149544 C.2        1 UNL1     0.3042
     55 O         -1.860422   -1.279997   -0.287772 O.2        1 UNL1     -0.2512
     56 C         -3.468663   -0.443715   1.220733 C.3        1 UNL1     0.0332
     57 C         -1.583706   2.204109   3.271402 C.3        1 UNL1     -0.0567
     58 C         1.85324   7.195172   -1.187083 C.3        1 UNL1     0.0210
     59 C         -1.115332   5.576255   2.948294 C.3        1 UNL1     0.0372
     60 C         0.650836   5.212631   0.586605 C.2        1 UNL1     -0.0208
     61 C         1.564216   5.647032   1.45596 C.2        1 UNL1     0.0882
     62 H         4.694212   2.728448   0.57829 H        1 UNL1     0.0365
     63 H         6.341871   3.601649   -0.254155 H        1 UNL1     0.0576
     64 H         8.344993   1.479729   -1.244981 H        1 UNL1     0.0615
     65 H         8.281885   4.597121   -1.434046 H        1 UNL1     0.0622
     66 H         -1.42264   5.332796   0.506627 H        1 UNL1     0.0645
     67 H         -1.850908   3.6351   -0.69113 H        1 UNL1     0.0362
     68 H         -2.53476   2.503236   1.060214 H        1 UNL1     0.0741
     69 H         -1.19627   0.523037   2.206358 H        1 UNL1     0.0359
     70 H         0.908383   0.725786   2.933573 H        1 UNL1     0.0600
     71 H         1.798312   -0.405763   1.311126 H        1 UNL1     0.0348
     72 H         3.358929   1.464098   1.299279 H        1 UNL1     0.0602
     73 H         0.769149   5.409265   -0.450017 H        1 UNL1     0.0628
     74 H         1.54623   5.436865   2.525887 H        1 UNL1     0.1022
     75 H         10.95887   2.239249   -3.43061 H        1 UNL1     0.0279
     76 H         10.802522   3.42698   -4.662743 H        1 UNL1     0.0279
     77 H         11.921314   3.648029   -3.257489 H        1 UNL1     0.0279
     78 H         9.072946   4.792065   -5.021381 H        1 UNL1     0.1553
     79 H         7.792327   3.322153   -4.666982 H        1 UNL1     0.1484
     80 H         4.042308   2.724052   -4.80529 H        1 UNL1     0.0317
     81 H         4.779083   4.250553   -5.270997 H        1 UNL1     0.0317
     82 H         6.689837   3.058003   -6.37578 H        1 UNL1     0.0428
     83 H         5.133485   2.583629   -7.01955 H        1 UNL1     0.0428
     84 H         6.908504   -0.054102   -4.192039 H        1 UNL1     0.0428
     85 H         7.820216   1.355486   -4.60552 H        1 UNL1     0.0428
     86 H         6.527559   1.430251   -2.472845 H        1 UNL1     0.0317
     87 H         5.031505   1.20462   -3.255958 H        1 UNL1     0.0317
     88 H         7.267146   0.869661   -7.377896 H        1 UNL1     0.0429
     89 H         6.901569   -0.617031   -6.49907 H        1 UNL1     0.0429
     90 H         4.361721   0.201382   -7.303909 H        1 UNL1     0.0308
     91 H         6.305071   1.020121   -9.541735 H        1 UNL1     0.0233
     92 H         4.536838   0.873203   -9.706842 H        1 UNL1     0.0233
     93 H         5.227097   2.111829   -8.68022 H        1 UNL1     0.0233
     94 H         4.647405   -1.489854   -9.152382 H        1 UNL1     0.0233
     95 H         6.345161   -1.616331   -8.66663 H        1 UNL1     0.0233
     96 H         5.057973   -2.052424   -7.519041 H        1 UNL1     0.0233
     97 H         4.150449   10.517694   -0.101985 H        1 UNL1     0.0280
     98 H         5.761266   11.131641   -0.35796 H        1 UNL1     0.0280
     99 H         4.586269   11.13395   -1.706702 H        1 UNL1     0.0280
     100 H         6.701951   10.713277   -3.015321 H        1 UNL1     0.2922
     101 H         4.70094   0.881962   2.435187 H        1 UNL1     0.0236
     102 H         6.016169   2.119232   2.508647 H        1 UNL1     0.0236
     103 H         6.319584   0.510551   1.929351 H        1 UNL1     0.0236
     104 H         4.329907   -0.56259   1.276111 H        1 UNL1     0.2098
     105 H         0.709216   1.282323   -0.92922 H        1 UNL1     0.0234
     106 H         1.291124   -0.404539   -1.012744 H        1 UNL1     0.0234
     107 H         0.0   -0.0   0.0 H        1 UNL1     0.0234
     108 H         1.202397   3.261127   1.750176 H        1 UNL1     0.2098
     109 H         1.083183   3.047829   -0.851464 H        1 UNL1     0.0234
     110 H         -0.174887   2.335396   -1.910946 H        1 UNL1     0.0234
     111 H         0.081015   4.044982   -1.885048 H        1 UNL1     0.0234
     112 H         -3.602471   -1.505179   1.450377 H        1 UNL1     0.0342
     113 H         -3.224921   0.122533   2.118395 H        1 UNL1     0.0342
     114 H         -4.422741   -0.059958   0.833913 H        1 UNL1     0.0342
     115 H         -2.653664   1.957271   3.309463 H        1 UNL1     0.0234
     116 H         -1.14776   1.924205   4.232471 H        1 UNL1     0.0234
     117 H         -1.620834   3.305993   3.222268 H        1 UNL1     0.0234
     118 H         0.952753   7.68346   -0.77513 H        1 UNL1     0.0309
     119 H         2.223511   7.78228   -2.03349 H        1 UNL1     0.0309
     120 H         1.463493   6.263536   -1.611653 H        1 UNL1     0.0309
     121 H         -0.29333   6.278268   2.811007 H        1 UNL1     0.0524
     122 H         -2.034425   6.066354   2.586206 H        1 UNL1     0.0524
     123 H         -1.233771   5.33915   4.001787 H        1 UNL1     0.0524
@<TRIPOS>BOND
     1     1     2    1
     2     1    42    1
     3     2     3    2
     4     3     4    1
     5     4     5    2
     6     5     7    1
     7     6    75    1
     8     6    76    1
     9     6    77    1
    10     7     9   am
    11     9    10    1
    12    10    11    2
    13    10    43    1
    14    11    14    1
    15    11    15    1
    16    12    13   ar
    17    12    27   ar
    18    12    43    1
    19    13    14    1
    20    13    30   ar
    21    14    17    2
    22    15    16    1
    23    16    17    1
    24    16    18    1
    25    16    22    1
    26    18    19    1
    27    19    20    1
    28    20    21    1
    29    21    22    1
    30    23    24    1
    31    23    88    1
    32    23    89    1
    33    24    25    1
    34    24    26    1
    35    24    90    1
    36    25    91    1
    37    25    92    1
    38    25    93    1
    39    26    94    1
    40    26    95    1
    41    26    96    1
    42    27    28   ar
    43    28    29   ar
    44    29    30   ar
    45    29    31    1
    46    30    33    1
    47    31    32    1
    48    32    33    1
    49    32    35    1
    50    34    97    1
    51    34    98    1
    52    34    99    1
    53    35    61    1
    54    36    37    1
    55    36    60    1
    56    37    38    1
    57    38    39    1
    58    39    40    1
    59    40    41    1
    60    41    42    1
    61    45   100    1
    62    47   101    1
    63    47   102    1
    64    47   103    1
    65    48   104    1
    66    49   105    1
    67    49   106    1
    68    49   107    1
    69    50   108    1
    70    51    59    1
    71    52   109    1
    72    52   110    1
    73    52   111    1
    74    53    54    1
    75    54    55    2
    76    54    56    1
    77    56   112    1
    78    56   113    1
    79    56   114    1
    80    57   115    1
    81    57   116    1
    82    57   117    1
    83    58   118    1
    84    58   119    1
    85    58   120    1
    86    59   121    1
    87    59   122    1
    88    59   123    1
    89    60    61    2
    90     1    47    1
    91     1    62    1
    92     2    63    1
    93     3    64    1
    94     4    65    1
    95     5     6    1
    96     7     8    2
    97     9    78    1
    98    15    79    1
    99    18    80    1
   100    18    81    1
   101    19    82    1
   102    19    83    1
   103    20    23    1
   104    21    84    1
   105    21    85    1
   106    22    86    1
   107    22    87    1
   108    27    45    1
   109    28    34    1
   110    32    58    1
   111    33    46    2
   112    36    51    1
   113    36    66    1
   114    37    52    1
   115    37    67    1
   116    38    53    1
   117    38    68    1
   118    42    48    1
   119    42    72    1
   120    43    44    2
   121    60    73    1
   122    61    74    1
   123    39    69    1
   124    39    57    1
   125    40    70    1
   126    40    50    1
   127    41    71    1
   128    41    49    1
