@<TRIPOS>MOLECULE
*****
 123 128 0 0 0
SMALL
GASTEIGER

@<TRIPOS>ATOM
     1 C         1.058524   2.288138   3.408072 C.3        1 UNL1     0.0009
     2 C         0.35416   2.16255   5.118375 C.2        1 UNL1     -0.0787
     3 C         -0.493129   2.685577   6.16937 C.2        1 UNL1     -0.0649
     4 C         -0.863247   1.972132   7.65946 C.2        1 UNL1     -0.0542
     5 C         -1.773665   1.956071   8.744798 C.2        1 UNL1     0.0115
     6 C         -2.975693   2.701067   9.387787 C.3        1 UNL1     -0.0348
     7 C         -1.792058   0.684604   9.724604 C.2        1 UNL1     0.2441
     8 O         -1.270692   0.689727   10.831255 O.2        1 UNL1     -0.2702
     9 N         -2.668067   -0.344501   9.337688 N.am        1 UNL1     -0.2772
     10 C         -2.035392   -1.217623   8.482877 C.2        1 UNL1     0.1049
     11 C         -1.996389   -0.861969   7.211574 C.2        1 UNL1     0.0801
     12 C         0.056946   -2.561336   8.211052 C.ar        1 UNL1     0.0753
     13 C         0.166425   -1.981695   6.906967 C.ar        1 UNL1     0.0305
     14 C         -0.927893   -1.214444   6.316335 C.2        1 UNL1     0.0924
     15 N         -2.655357   0.11671   6.567775 N.pl3        1 UNL1     -0.3170
     16 C         -2.390866   -0.027284   5.160805 C.3        1 UNL1     0.1275
     17 N         -1.03905   -0.695289   5.096889 N.2        1 UNL1     -0.2557
     18 C         -3.390792   -1.041745   4.614252 C.3        1 UNL1     0.0016
     19 C         -4.796473   -0.564838   4.943205 C.3        1 UNL1     0.0026
     20 N         -4.998361   0.746137   4.341861 N.3        1 UNL1     -0.3018
     21 C         -4.044297   1.775441   4.75979 C.3        1 UNL1     0.0026
     22 C         -2.639437   1.277561   4.415728 C.3        1 UNL1     0.0016
     23 C         -6.38825   1.157038   4.338504 C.3        1 UNL1     0.0012
     24 C         -6.497901   2.686783   4.43656 C.3        1 UNL1     -0.0339
     25 C         -7.739613   3.111377   5.237763 C.3        1 UNL1     -0.0615
     26 C         -5.224811   3.263086   5.031451 C.3        1 UNL1     -0.0615
     27 C         1.05417   -3.391141   8.718088 C.ar        1 UNL1     0.1347
     28 C         2.183596   -3.744385   8.001382 C.ar        1 UNL1     0.0342
     29 C         2.293442   -3.122892   6.739302 C.ar        1 UNL1     0.1435
     30 C         1.319828   -2.260933   6.23302 C.ar        1 UNL1     0.0774
     31 O         3.280324   -3.449378   5.876471 O.3        1 UNL1     -0.4436
     32 C         2.805467   -3.004   4.59701 C.3        1 UNL1     0.3143
     33 C         1.789913   -1.922583   4.905878 C.2        1 UNL1     0.2504
     34 C         3.165001   -4.819836   8.376011 C.3        1 UNL1     -0.0327
     35 O         3.904049   -2.367255   3.932987 O.2        1 UNL1     -0.4528
     36 C         3.333062   -2.91217   0.220154 C.3        1 UNL1     0.0854
     37 C         2.091457   -2.511853   -0.666235 C.3        1 UNL1     0.0236
     38 C         2.437976   -1.612713   -1.948115 C.3        1 UNL1     0.1131
     39 C         3.316981   -0.308611   -1.778003 C.3        1 UNL1     0.0200
     40 C         3.039102   0.738007   -0.509219 C.3        1 UNL1     0.0661
     41 C         1.532952   1.374876   -0.058085 C.3        1 UNL1     0.0091
     42 C         0.883025   1.837311   1.593929 C.3        1 UNL1     0.0661
     43 C         -1.195325   -2.32168   8.970421 C.2        1 UNL1     0.2131
     44 O         -1.58172   -3.039377   9.875047 O.2        1 UNL1     -0.2851
     45 O         0.891729   -3.87757   10.013634 O.3        1 UNL1     -0.5056
     46 O         1.45957   -0.981068   4.220111 O.2        1 UNL1     -0.2836
     47 C         2.152246   3.388552   3.354764 C.3        1 UNL1     -0.0566
     48 O         0.362611   3.152115   1.14719 O.3        1 UNL1     -0.3909
     49 C         0.443337   0.593666   -0.758046 C.3        1 UNL1     -0.0577
     50 O         3.756809   0.334572   0.639633 O.3        1 UNL1     -0.3910
     51 O         4.555052   -2.295176   -0.11673 O.3        1 UNL1     -0.3753
     52 C         0.813002   -2.266682   0.200017 C.3        1 UNL1     -0.0564
     53 O         1.323282   -1.540959   -2.95043 O.3        1 UNL1     -0.4608
     54 C         0.982377   -0.433862   -3.682586 C.2        1 UNL1     0.3042
     55 O         0.901881   -0.343933   -4.907033 O.2        1 UNL1     -0.2512
     56 C         0.623935   0.757234   -2.840254 C.3        1 UNL1     0.0332
     57 C         4.833069   -0.703488   -2.100065 C.3        1 UNL1     -0.0567
     58 C         2.073924   -4.207725   3.958716 C.3        1 UNL1     0.0210
     59 C         5.56504   -3.184699   -0.590584 C.3        1 UNL1     0.0372
     60 C         3.146808   -2.724338   1.6848 C.2        1 UNL1     -0.0208
     61 C         3.960346   -2.193417   2.598596 C.2        1 UNL1     0.0882
     62 H         1.579171   1.337183   3.573368 H        1 UNL1     0.0365
     63 H         0.884196   1.284317   5.492858 H        1 UNL1     0.0576
     64 H         -1.126853   3.561086   6.0113 H        1 UNL1     0.0615
     65 H         -0.128957   1.167385   7.752638 H        1 UNL1     0.0622
     66 H         3.443992   -3.99488   0.066918 H        1 UNL1     0.0645
     67 H         1.783439   -3.460103   -1.140055 H        1 UNL1     0.0362
     68 H         3.071251   -2.320984   -2.503845 H        1 UNL1     0.0741
     69 H         3.172011   0.324152   -2.643452 H        1 UNL1     0.0359
     70 H         3.582206   1.630154   -0.875512 H        1 UNL1     0.0600
     71 H         1.537035   2.314668   -0.64437 H        1 UNL1     0.0348
     72 H         1.977481   1.806194   1.696465 H        1 UNL1     0.0602
     73 H         2.253267   -3.21078   1.988457 H        1 UNL1     0.0628
     74 H         4.863556   -1.628256   2.366128 H        1 UNL1     0.1022
     75 H         -3.520086   2.02981   10.094953 H        1 UNL1     0.0279
     76 H         -2.736727   3.557288   10.014565 H        1 UNL1     0.0279
     77 H         -3.766854   2.938197   8.661471 H        1 UNL1     0.0279
     78 H         -3.46188   0.051615   8.838657 H        1 UNL1     0.1553
     79 H         -3.484021   0.557296   6.922927 H        1 UNL1     0.1484
     80 H         -3.244412   -1.140569   3.53186 H        1 UNL1     0.0317
     81 H         -3.217612   -2.033423   5.045801 H        1 UNL1     0.0317
     82 H         -4.972294   -0.533774   6.028578 H        1 UNL1     0.0428
     83 H         -5.493413   -1.303531   4.546143 H        1 UNL1     0.0428
     84 H         -4.168135   2.727553   4.234473 H        1 UNL1     0.0428
     85 H         -4.164572   2.038033   5.819929 H        1 UNL1     0.0428
     86 H         -1.98301   2.105148   4.611155 H        1 UNL1     0.0317
     87 H         -2.548421   1.13175   3.332422 H        1 UNL1     0.0317
     88 H         -6.83745   0.834531   3.390083 H        1 UNL1     0.0429
     89 H         -6.950805   0.667289   5.143769 H        1 UNL1     0.0429
     90 H         -6.573507   3.106941   3.426627 H        1 UNL1     0.0308
     91 H         -7.835522   2.530703   6.160109 H        1 UNL1     0.0233
     92 H         -7.694157   4.174299   5.486237 H        1 UNL1     0.0233
     93 H         -8.66939   2.968657   4.673864 H        1 UNL1     0.0233
     94 H         -5.421765   4.25209   5.459139 H        1 UNL1     0.0233
     95 H         -4.860715   2.615264   5.833775 H        1 UNL1     0.0233
     96 H         -4.440909   3.363353   4.275533 H        1 UNL1     0.0233
     97 H         4.177492   -4.436311   8.459691 H        1 UNL1     0.0280
     98 H         2.933038   -5.270828   9.349692 H        1 UNL1     0.0280
     99 H         3.157308   -5.610341   7.607807 H        1 UNL1     0.0280
     100 H         0.138727   -4.429222   10.133176 H        1 UNL1     0.2922
     101 H         2.974882   3.058878   2.720538 H        1 UNL1     0.0236
     102 H         2.495424   3.699943   4.340791 H        1 UNL1     0.0236
     103 H         1.785937   4.31385   2.879543 H        1 UNL1     0.0236
     104 H         0.467938   3.196721   0.176682 H        1 UNL1     0.2098
     105 H         -0.337621   1.20827   -1.198701 H        1 UNL1     0.0234
     106 H         0.801145   -0.138673   -1.481634 H        1 UNL1     0.0234
     107 H         0.0   -0.0   0.0 H        1 UNL1     0.0234
     108 H         3.585823   0.997458   1.336134 H        1 UNL1     0.2098
     109 H         0.512543   -3.162625   0.761017 H        1 UNL1     0.0234
     110 H         0.915099   -1.420617   0.888126 H        1 UNL1     0.0234
     111 H         -0.052379   -2.001202   -0.42174 H        1 UNL1     0.0234
     112 H         0.63777   1.663899   -3.45272 H        1 UNL1     0.0342
     113 H         -0.338473   0.634428   -2.345753 H        1 UNL1     0.0342
     114 H         1.388184   0.867155   -2.058585 H        1 UNL1     0.0342
     115 H         5.37546   0.120008   -2.584684 H        1 UNL1     0.0234
     116 H         5.409218   -1.004924   -1.223003 H        1 UNL1     0.0234
     117 H         4.92879   -1.498045   -2.859972 H        1 UNL1     0.0234
     118 H         1.337326   -3.890371   3.199957 H        1 UNL1     0.0309
     119 H         2.756492   -4.937598   3.51196 H        1 UNL1     0.0309
     120 H         1.467562   -4.7631   4.682587 H        1 UNL1     0.0309
     121 H         6.407308   -2.579341   -0.924474 H        1 UNL1     0.0524
     122 H         5.93362   -3.858723   0.200541 H        1 UNL1     0.0524
     123 H         5.183482   -3.782423   -1.413526 H        1 UNL1     0.0524
@<TRIPOS>BOND
     1     1     2    1
     2     1    42    1
     3     2     3    2
     4     3     4    1
     5     4     5    2
     6     5     7    1
     7     6    75    1
     8     6    76    1
     9     6    77    1
    10     7     9   am
    11     9    10    1
    12    10    11    2
    13    10    43    1
    14    11    14    1
    15    11    15    1
    16    12    13   ar
    17    12    27   ar
    18    12    43    1
    19    13    14    1
    20    13    30   ar
    21    14    17    2
    22    15    16    1
    23    16    17    1
    24    16    18    1
    25    16    22    1
    26    18    19    1
    27    19    20    1
    28    20    21    1
    29    21    22    1
    30    23    24    1
    31    23    88    1
    32    23    89    1
    33    24    25    1
    34    24    26    1
    35    24    90    1
    36    25    91    1
    37    25    92    1
    38    25    93    1
    39    26    94    1
    40    26    95    1
    41    26    96    1
    42    27    28   ar
    43    28    29   ar
    44    29    30   ar
    45    29    31    1
    46    30    33    1
    47    31    32    1
    48    32    33    1
    49    32    35    1
    50    34    97    1
    51    34    98    1
    52    34    99    1
    53    35    61    1
    54    36    37    1
    55    36    60    1
    56    37    38    1
    57    38    39    1
    58    39    40    1
    59    40    41    1
    60    41    42    1
    61    45   100    1
    62    47   101    1
    63    47   102    1
    64    47   103    1
    65    48   104    1
    66    49   105    1
    67    49   106    1
    68    49   107    1
    69    50   108    1
    70    51    59    1
    71    52   109    1
    72    52   110    1
    73    52   111    1
    74    53    54    1
    75    54    55    2
    76    54    56    1
    77    56   112    1
    78    56   113    1
    79    56   114    1
    80    57   115    1
    81    57   116    1
    82    57   117    1
    83    58   118    1
    84    58   119    1
    85    58   120    1
    86    59   121    1
    87    59   122    1
    88    59   123    1
    89    60    61    2
    90     1    47    1
    91     1    62    1
    92     2    63    1
    93     3    64    1
    94     4    65    1
    95     5     6    1
    96     7     8    2
    97     9    78    1
    98    15    79    1
    99    18    80    1
   100    18    81    1
   101    19    82    1
   102    19    83    1
   103    20    23    1
   104    21    84    1
   105    21    85    1
   106    22    86    1
   107    22    87    1
   108    27    45    1
   109    28    34    1
   110    32    58    1
   111    33    46    2
   112    36    51    1
   113    36    66    1
   114    37    52    1
   115    37    67    1
   116    38    53    1
   117    38    68    1
   118    42    48    1
   119    42    72    1
   120    43    44    2
   121    60    73    1
   122    61    74    1
   123    39    69    1
   124    39    57    1
   125    40    70    1
   126    40    50    1
   127    41    71    1
   128    41    49    1
