@<TRIPOS>MOLECULE
*****
 123 128 0 0 0
SMALL
GASTEIGER

@<TRIPOS>ATOM
     1 C         5.114621   1.906989   0.464538 C.3        1 UNL1     0.0009
     2 C         6.503551   2.795518   -0.383063 C.2        1 UNL1     -0.0787
     3 C         7.778604   2.769444   -1.068341 C.2        1 UNL1     -0.0649
     4 C         8.592157   4.060192   -1.802138 C.2        1 UNL1     -0.0542
     5 C         9.585184   4.420513   -2.746142 C.2        1 UNL1     0.0115
     6 C         10.726011   3.86657   -3.643351 C.3        1 UNL1     -0.0348
     7 C         9.609122   5.921925   -3.313752 C.2        1 UNL1     0.2441
     8 O         10.403071   6.767621   -2.925206 O.2        1 UNL1     -0.2702
     9 N         8.833892   6.127551   -4.46826 N.am        1 UNL1     -0.2772
     10 C         7.540728   6.450983   -4.127024 C.2        1 UNL1     0.1049
     11 C         6.740951   5.437161   -3.849999 C.2        1 UNL1     0.0801
     12 C         6.196477   7.963335   -2.65627 C.ar        1 UNL1     0.0753
     13 C         5.492197   6.792799   -2.229135 C.ar        1 UNL1     0.0305
     14 C         5.654622   5.510678   -2.910925 C.2        1 UNL1     0.0924
     15 N         6.917116   4.11924   -4.046414 N.pl3        1 UNL1     -0.3170
     16 C         5.678329   3.45859   -3.73145 C.3        1 UNL1     0.1275
     17 N         5.016583   4.359805   -2.717731 N.2        1 UNL1     -0.2557
     18 C         4.805451   3.514589   -4.98151 C.3        1 UNL1     0.0016
     19 C         5.571975   2.893124   -6.138148 C.3        1 UNL1     0.0026
     20 N         5.905515   1.518073   -5.793162 N.3        1 UNL1     -0.3018
     21 C         6.692904   1.357714   -4.56896 C.3        1 UNL1     0.0026
     22 C         5.902158   1.984786   -3.41944 C.3        1 UNL1     0.0016
     23 C         6.367954   0.747644   -6.930366 C.3        1 UNL1     0.0012
     24 C         5.209874   0.475215   -7.903192 C.3        1 UNL1     -0.0339
     25 C         5.526578   0.996524   -9.314572 C.3        1 UNL1     -0.0615
     26 C         4.878259   -1.006894   -7.916069 C.3        1 UNL1     -0.0615
     27 C         5.946473   9.206551   -2.08005 C.ar        1 UNL1     0.1347
     28 C         4.990983   9.409751   -1.100356 C.ar        1 UNL1     0.0342
     29 C         4.344606   8.234792   -0.661228 C.ar        1 UNL1     0.1435
     30 C         4.610479   6.976989   -1.203873 C.ar        1 UNL1     0.0774
     31 O         3.312287   8.281526   0.208909 O.3        1 UNL1     -0.4436
     32 C         2.641188   7.023318   0.043343 C.3        1 UNL1     0.3143
     33 C         3.687566   6.088514   -0.528885 C.2        1 UNL1     0.2504
     34 C         4.493457   10.743566   -0.617134 C.3        1 UNL1     -0.0327
     35 O         2.318464   6.537216   1.352085 O.2        1 UNL1     -0.4528
     36 C         -0.845744   4.480063   0.94712 C.3        1 UNL1     0.0854
     37 C         -1.11071   3.231683   0.020372 C.3        1 UNL1     0.0236
     38 C         -1.646078   1.925969   0.782105 C.3        1 UNL1     0.1131
     39 C         -0.87973   1.392311   2.058894 C.3        1 UNL1     0.0200
     40 C         0.786542   1.316459   2.073814 C.3        1 UNL1     0.0661
     41 C         1.760327   0.620099   0.871967 C.3        1 UNL1     0.0091
     42 C         3.442733   1.069602   0.295029 C.3        1 UNL1     0.0661
     43 C         7.138003   7.825745   -3.795066 C.2        1 UNL1     0.2131
     44 O         7.489198   8.758591   -4.494494 O.2        1 UNL1     -0.2851
     45 O         6.707655   10.28694   -2.521409 O.3        1 UNL1     -0.5056
     46 O         3.75614   4.883723   -0.430745 O.2        1 UNL1     -0.2836
     47 C         5.549622   1.457072   1.885218 C.3        1 UNL1     -0.0566
     48 O         3.951482   -0.322829   0.332808 O.3        1 UNL1     -0.3909
     49 C         0.91871   0.384957   -0.36249 C.3        1 UNL1     -0.0577
     50 O         1.340564   2.547976   2.491124 O.3        1 UNL1     -0.3910
     51 O         -0.941458   4.248765   2.334481 O.3        1 UNL1     -0.3753
     52 C         -0.077316   3.146101   -1.149979 C.3        1 UNL1     -0.0564
     53 O         -2.217422   0.886337   -0.137166 O.3        1 UNL1     -0.4608
     54 C         -2.360259   -0.444175   0.158241 C.2        1 UNL1     0.3042
     55 O         -1.650868   -1.374272   -0.223233 O.2        1 UNL1     -0.2512
     56 C         -3.493295   -0.732516   1.101534 C.3        1 UNL1     0.0332
     57 C         -1.609853   1.996667   3.347244 C.3        1 UNL1     -0.0567
     58 C         1.540949   7.250919   -1.019296 C.3        1 UNL1     0.0210
     59 C         -1.293228   5.39353   3.110134 C.3        1 UNL1     0.0372
     60 C         0.452075   5.170899   0.715662 C.2        1 UNL1     -0.0208
     61 C         1.358432   5.621524   1.584107 C.2        1 UNL1     0.0882
     62 H         4.598991   2.867414   0.584621 H        1 UNL1     0.0365
     63 H         6.194715   3.833919   -0.245899 H        1 UNL1     0.0576
     64 H         8.273308   1.829061   -1.321431 H        1 UNL1     0.0615
     65 H         8.072053   4.94463   -1.424322 H        1 UNL1     0.0622
     66 H         -1.625617   5.202172   0.667114 H        1 UNL1     0.0645
     67 H         -1.997332   3.519953   -0.570695 H        1 UNL1     0.0362
     68 H         -2.605485   2.312809   1.158157 H        1 UNL1     0.0741
     69 H         -1.165489   0.363252   2.231483 H        1 UNL1     0.0359
     70 H         0.938856   0.638537   2.935373 H        1 UNL1     0.0600
     71 H         1.853097   -0.409162   1.27068 H        1 UNL1     0.0348
     72 H         3.330665   1.526944   1.288806 H        1 UNL1     0.0602
     73 H         0.546445   5.40016   -0.316705 H        1 UNL1     0.0628
     74 H         1.365362   5.382254   2.648034 H        1 UNL1     0.1022
     75 H         10.767509   2.752354   -3.581423 H        1 UNL1     0.0279
     76 H         10.628781   4.03828   -4.712991 H        1 UNL1     0.0279
     77 H         11.726204   4.141429   -3.27761 H        1 UNL1     0.0279
     78 H         8.800949   5.269849   -5.015379 H        1 UNL1     0.1553
     79 H         7.590757   3.736281   -4.683973 H        1 UNL1     0.1484
     80 H         3.868631   2.978319   -4.787735 H        1 UNL1     0.0317
     81 H         4.531453   4.547542   -5.221478 H        1 UNL1     0.0317
     82 H         6.475723   3.469826   -6.384253 H        1 UNL1     0.0428
     83 H         4.93213   2.945074   -7.019595 H        1 UNL1     0.0428
     84 H         6.861537   0.313051   -4.28958 H        1 UNL1     0.0428
     85 H         7.704959   1.771786   -4.676688 H        1 UNL1     0.0428
     86 H         6.441843   1.732811   -2.525439 H        1 UNL1     0.0317
     87 H         4.945626   1.462839   -3.294076 H        1 UNL1     0.0317
     88 H         7.132723   1.336449   -7.453558 H        1 UNL1     0.0429
     89 H         6.845067   -0.187789   -6.610833 H        1 UNL1     0.0429
     90 H         4.307897   0.980797   -7.538451 H        1 UNL1     0.0308
     91 H         6.535862   0.711734   -9.626569 H        1 UNL1     0.0233
     92 H         4.805214   0.611877   -10.03934 H        1 UNL1     0.0233
     93 H         5.470585   2.089982   -9.378212 H        1 UNL1     0.0233
     94 H         4.357763   -1.26943   -8.843429 H        1 UNL1     0.0233
     95 H         5.798304   -1.59606   -7.867476 H        1 UNL1     0.0233
     96 H         4.239107   -1.280148   -7.071802 H        1 UNL1     0.0233
     97 H         3.658289   10.642517   0.069534 H        1 UNL1     0.0280
     98 H         5.266041   11.300259   -0.070816 H        1 UNL1     0.0280
     99 H         4.162209   11.347696   -1.477597 H        1 UNL1     0.0280
     100 H         6.207888   11.051618   -2.747515 H        1 UNL1     0.2922
     101 H         4.68642   1.076277   2.430685 H        1 UNL1     0.0236
     102 H         6.073122   2.235172   2.439737 H        1 UNL1     0.0236
     103 H         6.256147   0.6109   1.853443 H        1 UNL1     0.0236
     104 H         4.302193   -0.484461   1.230497 H        1 UNL1     0.2098
     105 H         0.700429   1.282973   -0.93497 H        1 UNL1     0.0234
     106 H         1.285589   -0.402663   -1.020503 H        1 UNL1     0.0234
     107 H         0.0   -0.0   0.0 H        1 UNL1     0.0234
     108 H         1.158621   3.200995   1.788109 H        1 UNL1     0.2098
     109 H         0.95774   3.078775   -0.786884 H        1 UNL1     0.0234
     110 H         -0.277506   2.320504   -1.841396 H        1 UNL1     0.0234
     111 H         -0.111508   4.040461   -1.786295 H        1 UNL1     0.0234
     112 H         -3.538838   -1.805441   1.311541 H        1 UNL1     0.0342
     113 H         -3.415788   -0.157027   2.022756 H        1 UNL1     0.0342
     114 H         -4.432087   -0.445815   0.607938 H        1 UNL1     0.0342
     115 H         -2.691086   1.801943   3.332854 H        1 UNL1     0.0234
     116 H         -1.220983   1.620084   4.295408 H        1 UNL1     0.0234
     117 H         -1.592433   3.099455   3.38594 H        1 UNL1     0.0234
     118 H         0.533402   7.295232   -0.56997 H        1 UNL1     0.0309
     119 H         1.70453   8.150422   -1.621241 H        1 UNL1     0.0309
     120 H         1.464398   6.420468   -1.729645 H        1 UNL1     0.0309
     121 H         -0.900468   5.243958   4.115482 H        1 UNL1     0.0524
     122 H         -0.846745   6.320697   2.713839 H        1 UNL1     0.0524
     123 H         -2.372999   5.508092   3.142748 H        1 UNL1     0.0524
@<TRIPOS>BOND
     1     1     2    1
     2     1    42    1
     3     2     3    2
     4     3     4    1
     5     4     5    2
     6     5     7    1
     7     6    75    1
     8     6    76    1
     9     6    77    1
    10     7     9   am
    11     9    10    1
    12    10    11    2
    13    10    43    1
    14    11    14    1
    15    11    15    1
    16    12    13   ar
    17    12    27   ar
    18    12    43    1
    19    13    14    1
    20    13    30   ar
    21    14    17    2
    22    15    16    1
    23    16    17    1
    24    16    18    1
    25    16    22    1
    26    18    19    1
    27    19    20    1
    28    20    21    1
    29    21    22    1
    30    23    24    1
    31    23    88    1
    32    23    89    1
    33    24    25    1
    34    24    26    1
    35    24    90    1
    36    25    91    1
    37    25    92    1
    38    25    93    1
    39    26    94    1
    40    26    95    1
    41    26    96    1
    42    27    28   ar
    43    28    29   ar
    44    29    30   ar
    45    29    31    1
    46    30    33    1
    47    31    32    1
    48    32    33    1
    49    32    35    1
    50    34    97    1
    51    34    98    1
    52    34    99    1
    53    35    61    1
    54    36    37    1
    55    36    60    1
    56    37    38    1
    57    38    39    1
    58    39    40    1
    59    40    41    1
    60    41    42    1
    61    45   100    1
    62    47   101    1
    63    47   102    1
    64    47   103    1
    65    48   104    1
    66    49   105    1
    67    49   106    1
    68    49   107    1
    69    50   108    1
    70    51    59    1
    71    52   109    1
    72    52   110    1
    73    52   111    1
    74    53    54    1
    75    54    55    2
    76    54    56    1
    77    56   112    1
    78    56   113    1
    79    56   114    1
    80    57   115    1
    81    57   116    1
    82    57   117    1
    83    58   118    1
    84    58   119    1
    85    58   120    1
    86    59   121    1
    87    59   122    1
    88    59   123    1
    89    60    61    2
    90     1    47    1
    91     1    62    1
    92     2    63    1
    93     3    64    1
    94     4    65    1
    95     5     6    1
    96     7     8    2
    97     9    78    1
    98    15    79    1
    99    18    80    1
   100    18    81    1
   101    19    82    1
   102    19    83    1
   103    20    23    1
   104    21    84    1
   105    21    85    1
   106    22    86    1
   107    22    87    1
   108    27    45    1
   109    28    34    1
   110    32    58    1
   111    33    46    2
   112    36    51    1
   113    36    66    1
   114    37    52    1
   115    37    67    1
   116    38    53    1
   117    38    68    1
   118    42    48    1
   119    42    72    1
   120    43    44    2
   121    60    73    1
   122    61    74    1
   123    39    69    1
   124    39    57    1
   125    40    70    1
   126    40    50    1
   127    41    71    1
   128    41    49    1
