@<TRIPOS>MOLECULE
*****
 123 128 0 0 0
SMALL
GASTEIGER

@<TRIPOS>ATOM
     1 C         5.172453   1.741807   0.456561 C.3        1 UNL1     0.0009
     2 C         6.606751   2.540428   -0.404851 C.2        1 UNL1     -0.0787
     3 C         7.884688   2.43594   -1.077164 C.2        1 UNL1     -0.0649
     4 C         8.761491   3.665544   -1.84244 C.2        1 UNL1     -0.0542
     5 C         9.777198   3.951547   -2.787755 C.2        1 UNL1     0.0115
     6 C         10.898871   3.319453   -3.657024 C.3        1 UNL1     -0.0348
     7 C         9.873424   5.432107   -3.400677 C.2        1 UNL1     0.2441
     8 O         10.701685   6.25289   -3.030779 O.2        1 UNL1     -0.2702
     9 N         9.117405   5.636567   -4.56806 N.am        1 UNL1     -0.2772
     10 C         7.837525   6.028153   -4.248857 C.2        1 UNL1     0.1049
     11 C         6.990597   5.060326   -3.948446 C.2        1 UNL1     0.0801
     12 C         6.551422   7.644093   -2.837472 C.ar        1 UNL1     0.0753
     13 C         5.791627   6.520135   -2.381358 C.ar        1 UNL1     0.0305
     14 C         5.901328   5.211554   -3.022164 C.2        1 UNL1     0.0924
     15 N         7.108579   3.730382   -4.102904 N.pl3        1 UNL1     -0.3170
     16 C         5.838762   3.136093   -3.779421 C.3        1 UNL1     0.1275
     17 N         5.210438   4.097024   -2.799858 N.2        1 UNL1     -0.2557
     18 C         4.979191   3.192583   -5.038647 C.3        1 UNL1     0.0016
     19 C         5.72595   2.501862   -6.168623 C.3        1 UNL1     0.0026
     20 N         5.99429   1.124537   -5.778754 N.3        1 UNL1     -0.3018
     21 C         6.763951   0.966885   -4.54298 C.3        1 UNL1     0.0026
     22 C         5.993305   1.664071   -3.420514 C.3        1 UNL1     0.0016
     23 C         6.4304   0.299334   -6.887578 C.3        1 UNL1     0.0012
     24 C         5.268902   0.049263   -7.862331 C.3        1 UNL1     -0.0339
     25 C         5.359938   0.966712   -9.092801 C.3        1 UNL1     -0.0615
     26 C         5.228616   -1.416159   -8.259439 C.3        1 UNL1     -0.0615
     27 C         6.353308   8.914499   -2.301805 C.ar        1 UNL1     0.1347
     28 C         5.40028   9.190595   -1.33767 C.ar        1 UNL1     0.0342
     29 C         4.698033   8.059991   -0.868898 C.ar        1 UNL1     0.1435
     30 C         4.911074   6.775345   -1.370413 C.ar        1 UNL1     0.0774
     31 O         3.662049   8.17992   -0.0102 O.3        1 UNL1     -0.4436
     32 C         2.936113   6.948612   -0.143502 C.3        1 UNL1     0.3143
     33 C         3.943666   5.95051   -0.677208 C.2        1 UNL1     0.2504
     34 C         4.959732   10.55971   -0.900014 C.3        1 UNL1     -0.0327
     35 O         2.581445   6.518178   1.176418 O.2        1 UNL1     -0.4528
     36 C         -0.669187   4.593702   0.80511 C.3        1 UNL1     0.0854
     37 C         -0.982971   3.330438   -0.085522 C.3        1 UNL1     0.0236
     38 C         -1.582778   2.074257   0.71071 C.3        1 UNL1     0.1131
     39 C         -0.851417   1.546432   2.010241 C.3        1 UNL1     0.0200
     40 C         0.809556   1.396306   2.042917 C.3        1 UNL1     0.0661
     41 C         1.76033   0.620096   0.871962 C.3        1 UNL1     0.0091
     42 C         3.465826   0.975526   0.297195 C.3        1 UNL1     0.0661
     43 C         7.494721   7.429219   -3.96276 C.2        1 UNL1     0.2131
     44 O         7.89321   8.323285   -4.687047 O.2        1 UNL1     -0.2851
     45 O         7.165985   9.945449   -2.768857 O.3        1 UNL1     -0.5056
     46 O         3.956958   4.747464   -0.541712 O.2        1 UNL1     -0.2836
     47 C         5.575464   1.316929   1.894282 C.3        1 UNL1     -0.0566
     48 O         3.910827   -0.436518   0.382169 O.3        1 UNL1     -0.3909
     49 C         0.91871   0.384955   -0.362493 C.3        1 UNL1     -0.0577
     50 O         1.415348   2.614003   2.427565 O.3        1 UNL1     -0.3910
     51 O         -0.786192   4.409926   2.197937 O.3        1 UNL1     -0.3753
     52 C         0.054698   3.162393   -1.243086 C.3        1 UNL1     -0.0564
     53 O         -2.193244   1.033424   -0.181659 O.3        1 UNL1     -0.4608
     54 C         -2.398377   -0.279562   0.152881 C.2        1 UNL1     0.3042
     55 O         -1.757617   -1.257099   -0.23142 O.2        1 UNL1     -0.2512
     56 C         -3.507656   -0.480979   1.145678 C.3        1 UNL1     0.0332
     57 C         -1.563626   2.222504   3.272723 C.3        1 UNL1     -0.0567
     58 C         1.855695   7.192453   -1.222746 C.3        1 UNL1     0.0210
     59 C         -1.091985   5.592762   2.934996 C.3        1 UNL1     0.0372
     60 C         0.660305   5.21806   0.564717 C.2        1 UNL1     -0.0208
     61 C         1.579221   5.654143   1.427369 C.2        1 UNL1     0.0882
     62 H         4.699813   2.727677   0.54249 H        1 UNL1     0.0365
     63 H         6.344076   3.595396   -0.302312 H        1 UNL1     0.0576
     64 H         8.338379   1.466911   -1.296838 H        1 UNL1     0.0615
     65 H         8.278916   4.583706   -1.496631 H        1 UNL1     0.0622
     66 H         -1.413405   5.341114   0.495977 H        1 UNL1     0.0645
     67 H         -1.850975   3.639837   -0.693306 H        1 UNL1     0.0362
     68 H         -2.526663   2.51524   1.06587 H        1 UNL1     0.0741
     69 H         -1.184732   0.537074   2.211501 H        1 UNL1     0.0359
     70 H         0.924286   0.73918   2.926139 H        1 UNL1     0.0600
     71 H         1.803354   -0.399479   1.302745 H        1 UNL1     0.0348
     72 H         3.366703   1.467937   1.27547 H        1 UNL1     0.0602
     73 H         0.773076   5.410833   -0.473248 H        1 UNL1     0.0628
     74 H         1.566943   5.447801   2.498121 H        1 UNL1     0.1022
     75 H         10.889493   2.206944   -3.560736 H        1 UNL1     0.0279
     76 H         10.817936   3.462216   -4.732262 H        1 UNL1     0.0279
     77 H         11.907546   3.56028   -3.290585 H        1 UNL1     0.0279
     78 H         9.050058   4.764712   -5.089029 H        1 UNL1     0.1553
     79 H         7.769236   3.298028   -4.722206 H        1 UNL1     0.1484
     80 H         4.017599   2.70518   -4.837288 H        1 UNL1     0.0317
     81 H         4.754045   4.22889   -5.312559 H        1 UNL1     0.0317
     82 H         6.656744   3.029505   -6.423826 H        1 UNL1     0.0428
     83 H         5.096076   2.555233   -7.057138 H        1 UNL1     0.0428
     84 H         6.883003   -0.075165   -4.230296 H        1 UNL1     0.0428
     85 H         7.7945   1.331551   -4.653909 H        1 UNL1     0.0428
     86 H         6.513987   1.41586   -2.514275 H        1 UNL1     0.0317
     87 H         5.013208   1.189742   -3.288152 H        1 UNL1     0.0317
     88 H         7.225094   0.83674   -7.421385 H        1 UNL1     0.0429
     89 H         6.862226   -0.646263   -6.535235 H        1 UNL1     0.0429
     90 H         4.320358   0.246666   -7.348999 H        1 UNL1     0.0308
     91 H         6.312054   0.837045   -9.616025 H        1 UNL1     0.0233
     92 H         4.5396   0.765956   -9.785876 H        1 UNL1     0.0233
     93 H         5.284147   2.028453   -8.828613 H        1 UNL1     0.0233
     94 H         4.56857   -1.55562   -9.122414 H        1 UNL1     0.0233
     95 H         6.22942   -1.754249   -8.542369 H        1 UNL1     0.0233
     96 H         4.863176   -2.041694   -7.440215 H        1 UNL1     0.0233
     97 H         4.131216   10.516544   -0.199352 H        1 UNL1     0.0280
     98 H         5.760212   11.107227   -0.38551 H        1 UNL1     0.0280
     99 H         4.639044   11.14269   -1.778871 H        1 UNL1     0.0280
     100 H         6.700317   10.708979   -3.061769 H        1 UNL1     0.2922
     101 H         4.691664   0.992333   2.44309 H        1 UNL1     0.0236
     102 H         6.129197   2.087495   2.429624 H        1 UNL1     0.0236
     103 H         6.243264   0.439298   1.894898 H        1 UNL1     0.0236
     104 H         4.246788   -0.585918   1.287586 H        1 UNL1     0.2098
     105 H         0.70043   1.28297   -0.934973 H        1 UNL1     0.0234
     106 H         1.285585   -0.402668   -1.020506 H        1 UNL1     0.0234
     107 H         0.0   -0.0   0.0 H        1 UNL1     0.0234
     108 H         1.268645   3.252495   1.70329 H        1 UNL1     0.2098
     109 H         1.082759   3.059895   -0.868524 H        1 UNL1     0.0234
     110 H         -0.177132   2.325646   -1.910809 H        1 UNL1     0.0234
     111 H         0.06597   4.037291   -1.906691 H        1 UNL1     0.0234
     112 H         -3.604709   -1.544385   1.38462 H        1 UNL1     0.0342
     113 H         -3.361867   0.110557   2.048271 H        1 UNL1     0.0342
     114 H         -4.447714   -0.153054   0.681005 H        1 UNL1     0.0342
     115 H         -2.651727   2.070875   3.257489 H        1 UNL1     0.0234
     116 H         -1.195406   1.862721   4.235542 H        1 UNL1     0.0234
     117 H         -1.502029   3.324386   3.274726 H        1 UNL1     0.0234
     118 H         0.95641   7.679356   -0.806553 H        1 UNL1     0.0309
     119 H         2.220818   7.779893   -2.071158 H        1 UNL1     0.0309
     120 H         1.465458   6.260009   -1.645084 H        1 UNL1     0.0309
     121 H         -0.714324   5.456843   3.948038 H        1 UNL1     0.0524
     122 H         -0.600954   6.486247   2.514744 H        1 UNL1     0.0524
     123 H         -2.1657   5.756665   2.954086 H        1 UNL1     0.0524
@<TRIPOS>BOND
     1     1     2    1
     2     1    42    1
     3     2     3    2
     4     3     4    1
     5     4     5    2
     6     5     7    1
     7     6    75    1
     8     6    76    1
     9     6    77    1
    10     7     9   am
    11     9    10    1
    12    10    11    2
    13    10    43    1
    14    11    14    1
    15    11    15    1
    16    12    13   ar
    17    12    27   ar
    18    12    43    1
    19    13    14    1
    20    13    30   ar
    21    14    17    2
    22    15    16    1
    23    16    17    1
    24    16    18    1
    25    16    22    1
    26    18    19    1
    27    19    20    1
    28    20    21    1
    29    21    22    1
    30    23    24    1
    31    23    88    1
    32    23    89    1
    33    24    25    1
    34    24    26    1
    35    24    90    1
    36    25    91    1
    37    25    92    1
    38    25    93    1
    39    26    94    1
    40    26    95    1
    41    26    96    1
    42    27    28   ar
    43    28    29   ar
    44    29    30   ar
    45    29    31    1
    46    30    33    1
    47    31    32    1
    48    32    33    1
    49    32    35    1
    50    34    97    1
    51    34    98    1
    52    34    99    1
    53    35    61    1
    54    36    37    1
    55    36    60    1
    56    37    38    1
    57    38    39    1
    58    39    40    1
    59    40    41    1
    60    41    42    1
    61    45   100    1
    62    47   101    1
    63    47   102    1
    64    47   103    1
    65    48   104    1
    66    49   105    1
    67    49   106    1
    68    49   107    1
    69    50   108    1
    70    51    59    1
    71    52   109    1
    72    52   110    1
    73    52   111    1
    74    53    54    1
    75    54    55    2
    76    54    56    1
    77    56   112    1
    78    56   113    1
    79    56   114    1
    80    57   115    1
    81    57   116    1
    82    57   117    1
    83    58   118    1
    84    58   119    1
    85    58   120    1
    86    59   121    1
    87    59   122    1
    88    59   123    1
    89    60    61    2
    90     1    47    1
    91     1    62    1
    92     2    63    1
    93     3    64    1
    94     4    65    1
    95     5     6    1
    96     7     8    2
    97     9    78    1
    98    15    79    1
    99    18    80    1
   100    18    81    1
   101    19    82    1
   102    19    83    1
   103    20    23    1
   104    21    84    1
   105    21    85    1
   106    22    86    1
   107    22    87    1
   108    27    45    1
   109    28    34    1
   110    32    58    1
   111    33    46    2
   112    36    51    1
   113    36    66    1
   114    37    52    1
   115    37    67    1
   116    38    53    1
   117    38    68    1
   118    42    48    1
   119    42    72    1
   120    43    44    2
   121    60    73    1
   122    61    74    1
   123    39    69    1
   124    39    57    1
   125    40    70    1
   126    40    50    1
   127    41    71    1
   128    41    49    1
