@<TRIPOS>MOLECULE
*****
 123 128 0 0 0
SMALL
GASTEIGER

@<TRIPOS>ATOM
     1 C         3.614602   1.626934   -3.781467 C.3        1 UNL1     0.0009
     2 C         5.135345   1.179588   -4.74285 C.2        1 UNL1     -0.0787
     3 C         6.562759   1.28965   -4.958312 C.2        1 UNL1     -0.0649
     4 C         7.515148   0.443315   -6.073224 C.2        1 UNL1     -0.0542
     5 C         8.830984   0.033037   -6.40083 C.2        1 UNL1     0.0115
     6 C         10.330967   0.217441   -6.041152 C.3        1 UNL1     -0.0348
     7 C         9.032487   -1.169244   -7.445294 C.2        1 UNL1     0.2441
     8 O         9.349612   -0.990031   -8.61313 O.2        1 UNL1     -0.2702
     9 N         9.076459   -2.450088   -6.867665 N.am        1 UNL1     -0.2772
     10 C         7.807998   -2.972508   -6.760877 C.2        1 UNL1     0.1049
     11 C         7.10895   -2.592703   -5.706694 C.2        1 UNL1     0.0801
     12 C         5.707193   -3.362003   -8.061741 C.ar        1 UNL1     0.0753
     13 C         5.011533   -2.747805   -6.972051 C.ar        1 UNL1     0.0305
     14 C         5.676985   -2.462946   -5.702767 C.2        1 UNL1     0.0924
     15 N         7.501342   -1.938909   -4.599847 N.pl3        1 UNL1     -0.3170
     16 C         6.392875   -1.923133   -3.68262 C.3        1 UNL1     0.1275
     17 N         5.170891   -1.994684   -4.565434 N.2        1 UNL1     -0.2557
     18 C         6.430838   -3.235145   -2.904875 C.3        1 UNL1     0.0016
     19 C         7.792529   -3.368206   -2.241789 C.3        1 UNL1     0.0026
     20 N         7.995579   -2.228905   -1.357599 N.3        1 UNL1     -0.3018
     21 C         7.915363   -0.917698   -2.004647 C.3        1 UNL1     0.0026
     22 C         6.537967   -0.803733   -2.660152 C.3        1 UNL1     0.0016
     23 C         9.118128   -2.406174   -0.458097 C.3        1 UNL1     0.0012
     24 C         8.797637   -3.47442   0.599207 C.3        1 UNL1     -0.0339
     25 C         9.458998   -3.146845   1.948041 C.3        1 UNL1     -0.0615
     26 C         7.293734   -3.634735   0.738326 C.3        1 UNL1     -0.0615
     27 C         5.038351   -3.740388   -9.223461 C.ar        1 UNL1     0.1347
     28 C         3.673517   -3.592421   -9.394886 C.ar        1 UNL1     0.0342
     29 C         3.017456   -2.940979   -8.328879 C.ar        1 UNL1     0.1435
     30 C         3.68057   -2.523732   -7.174147 C.ar        1 UNL1     0.0774
     31 O         1.672246   -2.820907   -8.297267 O.3        1 UNL1     -0.4436
     32 C         1.363416   -2.563437   -6.91915 C.3        1 UNL1     0.3143
     33 C         2.634401   -1.986276   -6.329494 C.2        1 UNL1     0.2504
     34 C         2.852778   -4.198294   -10.499153 C.3        1 UNL1     -0.0327
     35 O         0.379737   -1.521898   -6.890445 O.2        1 UNL1     -0.4528
     36 C         -1.696743   -2.137253   -3.773129 C.3        1 UNL1     0.0854
     37 C         -1.23096   -2.238544   -2.269696 C.3        1 UNL1     0.0236
     38 C         -1.976153   -1.237667   -1.262384 C.3        1 UNL1     0.1131
     39 C         -2.066041   0.302966   -1.609715 C.3        1 UNL1     0.0200
     40 C         -0.736054   1.113383   -2.207039 C.3        1 UNL1     0.0661
     41 C         0.825684   1.083224   -1.545468 C.3        1 UNL1     0.0091
     42 C         2.465477   1.198329   -2.359859 C.3        1 UNL1     0.0661
     43 C         7.148448   -3.664338   -7.878339 C.2        1 UNL1     0.2131
     44 O         7.747851   -4.50344   -8.525919 O.2        1 UNL1     -0.2851
     45 O         5.797147   -4.289998   -10.254768 O.3        1 UNL1     -0.5056
     46 O         2.75464   -1.234295   -5.388261 O.2        1 UNL1     -0.2836
     47 C         3.166142   3.073172   -4.123902 C.3        1 UNL1     -0.0566
     48 O         2.992369   2.209523   -1.411709 O.3        1 UNL1     -0.3909
     49 C         0.909247   -0.046117   -0.542921 C.3        1 UNL1     -0.0577
     50 O         -0.66723   0.995091   -3.613806 O.3        1 UNL1     -0.3910
     51 O         -2.571832   -1.074471   -4.076683 O.3        1 UNL1     -0.3753
     52 C         0.297048   -2.549477   -2.153675 C.3        1 UNL1     -0.0564
     53 O         -1.780965   -1.586054   0.184286 O.3        1 UNL1     -0.4608
     54 C         -2.75763   -1.567496   1.145384 C.2        1 UNL1     0.3042
     55 O         -2.949985   -0.701644   1.998109 O.2        1 UNL1     -0.2512
     56 C         -3.702781   -2.732368   1.064913 C.3        1 UNL1     0.0332
     57 C         -3.474972   0.55502   -2.323548 C.3        1 UNL1     -0.0567
     58 C         1.091054   -3.939195   -6.267508 C.3        1 UNL1     0.0210
     59 C         -3.920238   -1.463302   -4.334511 C.3        1 UNL1     0.0372
     60 C         -0.593716   -2.083396   -4.770922 C.2        1 UNL1     -0.0208
     61 C         -0.430719   -1.299958   -5.837881 C.2        1 UNL1     0.0882
     62 H         3.03297   0.957818   -4.42699 H        1 UNL1     0.0365
     63 H         4.700778   0.574578   -5.541339 H        1 UNL1     0.0576
     64 H         7.204459   1.84432   -4.270075 H        1 UNL1     0.0615
     65 H         6.784967   -0.004454   -6.752799 H        1 UNL1     0.0622
     66 H         -2.227846   -3.080868   -3.96172 H        1 UNL1     0.0645
     67 H         -1.618434   -3.216257   -1.934285 H        1 UNL1     0.0362
     68 H         -3.005149   -1.617741   -1.35313 H        1 UNL1     0.0741
     69 H         -2.291014   0.851234   -0.70462 H        1 UNL1     0.0359
     70 H         -1.055509   2.158657   -2.032656 H        1 UNL1     0.0600
     71 H         0.769072   1.963936   -0.876067 H        1 UNL1     0.0348
     72 H         1.739956   1.602975   -3.080412 H        1 UNL1     0.0602
     73 H         0.070084   -2.894589   -4.601855 H        1 UNL1     0.0628
     74 H         -1.031279   -0.414896   -6.050561 H        1 UNL1     0.1022
     75 H         10.582818   1.301905   -5.954295 H        1 UNL1     0.0279
     76 H         10.650852   -0.175168   -5.078551 H        1 UNL1     0.0279
     77 H         11.004462   -0.097289   -6.851738 H        1 UNL1     0.0279
     78 H         9.462468   -2.388397   -5.927841 H        1 UNL1     0.1553
     79 H         8.456675   -1.876051   -4.299312 H        1 UNL1     0.1484
     80 H         5.622659   -3.23481   -2.163516 H        1 UNL1     0.0317
     81 H         6.248206   -4.088102   -3.567265 H        1 UNL1     0.0317
     82 H         8.601159   -3.442476   -2.983756 H        1 UNL1     0.0428
     83 H         7.79856   -4.311168   -1.694216 H        1 UNL1     0.0428
     84 H         7.991667   -0.078518   -1.306244 H        1 UNL1     0.0428
     85 H         8.745176   -0.756842   -2.706681 H        1 UNL1     0.0428
     86 H         6.465011   0.21063   -3.006175 H        1 UNL1     0.0317
     87 H         5.753123   -0.868509   -1.896659 H        1 UNL1     0.0317
     88 H         9.978743   -2.746273   -1.048833 H        1 UNL1     0.0429
     89 H         9.405842   -1.457155   0.01239 H        1 UNL1     0.0429
     90 H         9.171665   -4.445435   0.253597 H        1 UNL1     0.0308
     91 H         9.311034   -2.097196   2.21905 H        1 UNL1     0.0233
     92 H         9.055912   -3.782047   2.740285 H        1 UNL1     0.0233
     93 H         10.541469   -3.322761   1.93606 H        1 UNL1     0.0233
     94 H         7.049127   -4.07381   1.711577 H        1 UNL1     0.0233
     95 H         6.806584   -2.657531   0.677336 H        1 UNL1     0.0233
     96 H         6.887243   -4.281267   -0.044444 H        1 UNL1     0.0233
     97 H         2.065793   -4.841145   -10.116234 H        1 UNL1     0.0280
     98 H         2.348653   -3.435255   -11.106513 H        1 UNL1     0.0280
     99 H         3.503038   -4.800847   -11.154276 H        1 UNL1     0.0280
     100 H         6.567181   -3.797869   -10.479445 H        1 UNL1     0.2922
     101 H         2.294937   3.042822   -4.777917 H        1 UNL1     0.0236
     102 H         3.967662   3.683678   -4.538427 H        1 UNL1     0.0236
     103 H         2.826587   3.623879   -3.230808 H        1 UNL1     0.0236
     104 H         2.922054   3.083436   -1.843336 H        1 UNL1     0.2098
     105 H         0.982067   -1.035947   -0.986482 H        1 UNL1     0.0234
     106 H         1.673181   0.081335   0.223947 H        1 UNL1     0.0234
     107 H         0.0   0.0   0.0 H        1 UNL1     0.0234
     108 H         0.226763   1.279279   -3.885434 H        1 UNL1     0.2098
     109 H         0.563352   -3.507371   -2.621897 H        1 UNL1     0.0234
     110 H         0.930284   -1.753959   -2.560991 H        1 UNL1     0.0234
     111 H         0.614773   -2.632364   -1.105759 H        1 UNL1     0.0234
     112 H         -4.466883   -2.646112   1.843407 H        1 UNL1     0.0342
     113 H         -4.157426   -2.823562   0.079608 H        1 UNL1     0.0342
     114 H         -3.13139   -3.651521   1.254216 H        1 UNL1     0.0342
     115 H         -3.881631   1.547569   -2.08551 H        1 UNL1     0.0234
     116 H         -3.443966   0.465088   -3.411206 H        1 UNL1     0.0234
     117 H         -4.280651   -0.10044   -1.950458 H        1 UNL1     0.0234
     118 H         0.026917   -4.06959   -6.00366 H        1 UNL1     0.0309
     119 H         1.411329   -4.780508   -6.89026 H        1 UNL1     0.0309
     120 H         1.605717   -4.059061   -5.307893 H        1 UNL1     0.0309
     121 H         -4.365416   -0.703647   -4.97646 H        1 UNL1     0.0524
     122 H         -3.983245   -2.426697   -4.867369 H        1 UNL1     0.0524
     123 H         -4.474312   -1.538622   -3.403156 H        1 UNL1     0.0524
@<TRIPOS>BOND
     1     1     2    1
     2     1    42    1
     3     2     3    2
     4     3     4    1
     5     4     5    2
     6     5     7    1
     7     6    75    1
     8     6    76    1
     9     6    77    1
    10     7     9   am
    11     9    10    1
    12    10    11    2
    13    10    43    1
    14    11    14    1
    15    11    15    1
    16    12    13   ar
    17    12    27   ar
    18    12    43    1
    19    13    14    1
    20    13    30   ar
    21    14    17    2
    22    15    16    1
    23    16    17    1
    24    16    18    1
    25    16    22    1
    26    18    19    1
    27    19    20    1
    28    20    21    1
    29    21    22    1
    30    23    24    1
    31    23    88    1
    32    23    89    1
    33    24    25    1
    34    24    26    1
    35    24    90    1
    36    25    91    1
    37    25    92    1
    38    25    93    1
    39    26    94    1
    40    26    95    1
    41    26    96    1
    42    27    28   ar
    43    28    29   ar
    44    29    30   ar
    45    29    31    1
    46    30    33    1
    47    31    32    1
    48    32    33    1
    49    32    35    1
    50    34    97    1
    51    34    98    1
    52    34    99    1
    53    35    61    1
    54    36    37    1
    55    36    60    1
    56    37    38    1
    57    38    39    1
    58    39    40    1
    59    40    41    1
    60    41    42    1
    61    45   100    1
    62    47   101    1
    63    47   102    1
    64    47   103    1
    65    48   104    1
    66    49   105    1
    67    49   106    1
    68    49   107    1
    69    50   108    1
    70    51    59    1
    71    52   109    1
    72    52   110    1
    73    52   111    1
    74    53    54    1
    75    54    55    2
    76    54    56    1
    77    56   112    1
    78    56   113    1
    79    56   114    1
    80    57   115    1
    81    57   116    1
    82    57   117    1
    83    58   118    1
    84    58   119    1
    85    58   120    1
    86    59   121    1
    87    59   122    1
    88    59   123    1
    89    60    61    2
    90     1    47    1
    91     1    62    1
    92     2    63    1
    93     3    64    1
    94     4    65    1
    95     5     6    1
    96     7     8    2
    97     9    78    1
    98    15    79    1
    99    18    80    1
   100    18    81    1
   101    19    82    1
   102    19    83    1
   103    20    23    1
   104    21    84    1
   105    21    85    1
   106    22    86    1
   107    22    87    1
   108    27    45    1
   109    28    34    1
   110    32    58    1
   111    33    46    2
   112    36    51    1
   113    36    66    1
   114    37    52    1
   115    37    67    1
   116    38    53    1
   117    38    68    1
   118    42    48    1
   119    42    72    1
   120    43    44    2
   121    60    73    1
   122    61    74    1
   123    39    69    1
   124    39    57    1
   125    40    70    1
   126    40    50    1
   127    41    71    1
   128    41    49    1
