@<TRIPOS>MOLECULE
*****
 123 128 0 0 0
SMALL
GASTEIGER

@<TRIPOS>ATOM
     1 C         5.125497   1.837221   0.594285 C.3        1 UNL1     0.0009
     2 C         6.561906   2.675479   -0.224915 C.2        1 UNL1     -0.0787
     3 C         7.856675   2.605414   -0.868894 C.2        1 UNL1     -0.0649
     4 C         8.724638   3.861856   -1.599888 C.2        1 UNL1     -0.0542
     5 C         9.755307   4.179966   -2.518368 C.2        1 UNL1     0.0115
     6 C         10.909417   3.581535   -3.368799 C.3        1 UNL1     -0.0348
     7 C         9.834347   5.669332   -3.11211 C.2        1 UNL1     0.2441
     8 O         10.636612   6.502664   -2.714046 O.2        1 UNL1     -0.2702
     9 N         9.100884   5.871863   -4.294127 N.am        1 UNL1     -0.2772
     10 C         7.806163   6.23307   -3.999934 C.2        1 UNL1     0.1049
     11 C         6.973118   5.244438   -3.730002 C.2        1 UNL1     0.0801
     12 C         6.454775   7.805264   -2.600188 C.ar        1 UNL1     0.0753
     13 C         5.708562   6.660511   -2.174376 C.ar        1 UNL1     0.0305
     14 C         5.860185   5.362137   -2.827282 C.2        1 UNL1     0.0924
     15 N         7.122432   3.919138   -3.896772 N.pl3        1 UNL1     -0.3170
     16 C         5.858344   3.294909   -3.60924 C.3        1 UNL1     0.1275
     17 N         5.18795   4.230995   -2.633515 N.2        1 UNL1     -0.2557
     18 C         5.026564   3.348451   -4.887119 C.3        1 UNL1     0.0016
     19 C         5.813083   2.686726   -6.007431 C.3        1 UNL1     0.0026
     20 N         6.101329   1.310746   -5.627142 N.3        1 UNL1     -0.3018
     21 C         6.845896   1.154485   -4.375914 C.3        1 UNL1     0.0026
     22 C         6.035536   1.822268   -3.263584 C.3        1 UNL1     0.0016
     23 C         6.579687   0.507895   -6.734955 C.3        1 UNL1     0.0012
     24 C         5.446098   0.245354   -7.73885 C.3        1 UNL1     -0.0339
     25 C         5.484209   1.247019   -8.904728 C.3        1 UNL1     -0.0615
     26 C         5.509531   -1.189615   -8.232429 C.3        1 UNL1     -0.0615
     27 C         6.217967   9.064884   -2.054846 C.ar        1 UNL1     0.1347
     28 C         5.237733   9.30979   -1.109746 C.ar        1 UNL1     0.0342
     29 C         4.548893   8.159434   -0.670036 C.ar        1 UNL1     0.1435
     30 C         4.800146   6.885484   -1.181057 C.ar        1 UNL1     0.0774
     31 O         3.491411   8.247744   0.16599 O.3        1 UNL1     -0.4436
     32 C         2.794662   7.003329   0.002139 C.3        1 UNL1     0.3143
     33 C         3.834769   6.032671   -0.519602 C.2        1 UNL1     0.2504
     34 C         4.758761   10.664229   -0.666823 C.3        1 UNL1     -0.0327
     35 O         2.419247   6.550094   1.30862 O.2        1 UNL1     -0.4528
     36 C         -0.78106   4.563247   0.841107 C.3        1 UNL1     0.0854
     37 C         -1.048002   3.304359   -0.070739 C.3        1 UNL1     0.0236
     38 C         -1.639247   2.026718   0.69725 C.3        1 UNL1     0.1131
     39 C         -0.926647   1.498844   2.007143 C.3        1 UNL1     0.0200
     40 C         0.735941   1.382764   2.076186 C.3        1 UNL1     0.0661
     41 C         1.729099   0.64028   0.918617 C.3        1 UNL1     0.0091
     42 C         3.439366   1.037705   0.387165 C.3        1 UNL1     0.0661
     43 C         7.427656   7.623265   -3.705917 C.2        1 UNL1     0.2131
     44 O         7.823638   8.533876   -4.410702 O.2        1 UNL1     -0.2851
     45 O         7.019234   10.11788   -2.491434 O.3        1 UNL1     -0.5056
     46 O         3.870206   4.828643   -0.397475 O.2        1 UNL1     -0.2836
     47 C         5.50461   1.403835   2.035962 C.3        1 UNL1     -0.0566
     48 O         3.911835   -0.365729   0.466315 O.3        1 UNL1     -0.3909
     49 C         0.920814   0.402354   -0.337392 C.3        1 UNL1     -0.0577
     50 O         1.307186   2.608116   2.488392 O.3        1 UNL1     -0.3910
     51 O         -0.925751   4.36066   2.228714 O.3        1 UNL1     -0.3753
     52 C         0.018954   3.17151   -1.206039 C.3        1 UNL1     -0.0564
     53 O         -2.207355   0.984075   -0.220614 O.3        1 UNL1     -0.4608
     54 C         -2.42399   -0.329245   0.105253 C.2        1 UNL1     0.3042
     55 O         -1.829473   -1.314617   -0.32998 O.2        1 UNL1     -0.2512
     56 C         -3.479222   -0.521741   1.156988 C.3        1 UNL1     0.0332
     57 C         -1.68133   2.145076   3.260544 C.3        1 UNL1     -0.0567
     58 C         1.73413   7.237472   -1.09876 C.3        1 UNL1     0.0210
     59 C         -1.272919   5.528128   2.971922 C.3        1 UNL1     0.0372
     60 C         0.54016   5.217791   0.638345 C.2        1 UNL1     -0.0208
     61 C         1.429925   5.662592   1.526723 C.2        1 UNL1     0.0882
     62 H         4.630462   2.81201   0.68052 H        1 UNL1     0.0365
     63 H         6.27491   3.723498   -0.116479 H        1 UNL1     0.0576
     64 H         8.335451   1.648647   -1.089074 H        1 UNL1     0.0615
     65 H         8.215197   4.765683   -1.254853 H        1 UNL1     0.0622
     66 H         -1.533581   5.298688   0.523482 H        1 UNL1     0.0645
     67 H         -1.908292   3.602874   -0.694719 H        1 UNL1     0.0362
     68 H         -2.599984   2.443841   1.035651 H        1 UNL1     0.0741
     69 H         -1.243205   0.480496   2.18926 H        1 UNL1     0.0359
     70 H         0.844358   0.717773   2.954305 H        1 UNL1     0.0600
     71 H         1.783707   -0.383199   1.338695 H        1 UNL1     0.0348
     72 H         3.307774   1.516376   1.368426 H        1 UNL1     0.0602
     73 H         0.672381   5.425097   -0.39451 H        1 UNL1     0.0628
     74 H         1.397689   5.443414   2.594506 H        1 UNL1     0.1022
     75 H         10.971177   2.476084   -3.223201 H        1 UNL1     0.0279
     76 H         10.812972   3.670579   -4.448539 H        1 UNL1     0.0279
     77 H         11.903035   3.901665   -3.022474 H        1 UNL1     0.0279
     78 H         9.063668   5.00501   -4.826347 H        1 UNL1     0.1553
     79 H         7.805888   3.507895   -4.505624 H        1 UNL1     0.1484
     80 H         4.071083   2.838901   -4.713394 H        1 UNL1     0.0317
     81 H         4.78601   4.383036   -5.154363 H        1 UNL1     0.0317
     82 H         6.738158   3.236502   -6.235234 H        1 UNL1     0.0428
     83 H         5.202546   2.73753   -6.909492 H        1 UNL1     0.0428
     84 H         6.979647   0.111505   -4.072408 H        1 UNL1     0.0428
     85 H         7.870823   1.541693   -4.459049 H        1 UNL1     0.0428
     86 H         6.540617   1.574209   -2.348517 H        1 UNL1     0.0317
     87 H         5.06285   1.32622   -3.159108 H        1 UNL1     0.0317
     88 H         7.374843   1.067903   -7.24428 H        1 UNL1     0.0429
     89 H         7.023141   -0.432652   -6.38354 H        1 UNL1     0.0429
     90 H         4.482072   0.343269   -7.225742 H        1 UNL1     0.0308
     91 H         6.445014   1.213041   -9.427033 H        1 UNL1     0.0233
     92 H         4.681458   1.04171   -9.6168 H        1 UNL1     0.0233
     93 H         5.33986   2.281788   -8.571183 H        1 UNL1     0.0233
     94 H         4.832095   -1.327053   -9.082152 H        1 UNL1     0.0233
     95 H         6.523414   -1.424792   -8.56813 H        1 UNL1     0.0233
     96 H         5.225447   -1.894898   -7.446402 H        1 UNL1     0.0233
     97 H         3.947603   10.594632   0.051793 H        1 UNL1     0.0280
     98 H         5.55037   11.241521   -0.1715 H        1 UNL1     0.0280
     99 H         4.398825   11.232203   -1.54029 H        1 UNL1     0.0280
     100 H         6.544368   10.862981   -2.815391 H        1 UNL1     0.2922
     101 H         4.641157   0.950939   2.52278 H        1 UNL1     0.0236
     102 H         5.930714   2.212645   2.62862 H        1 UNL1     0.0236
     103 H         6.275122   0.61487   2.042112 H        1 UNL1     0.0236
     104 H         4.318411   -0.4909   1.346087 H        1 UNL1     0.2098
     105 H         0.701927   1.301616   -0.907679 H        1 UNL1     0.0234
     106 H         1.315644   -0.373856   -0.992782 H        1 UNL1     0.0234
     107 H         0.0   -0.0   0.0 H        1 UNL1     0.0234
     108 H         1.109419   3.267851   1.796001 H        1 UNL1     0.2098
     109 H         1.038944   3.073486   -0.808897 H        1 UNL1     0.0234
     110 H         -0.186751   2.345629   -1.895496 H        1 UNL1     0.0234
     111 H         0.035495   4.059556   -1.851831 H        1 UNL1     0.0234
     112 H         -3.596488   -1.587431   1.375847 H        1 UNL1     0.0342
     113 H         -3.261812   0.041614   2.063193 H        1 UNL1     0.0342
     114 H         -4.433751   -0.153093   0.756817 H        1 UNL1     0.0342
     115 H         -2.746799   1.877396   3.278177 H        1 UNL1     0.0234
     116 H         -1.256569   1.865796   4.226789 H        1 UNL1     0.0234
     117 H         -1.738955   3.246405   3.219382 H        1 UNL1     0.0234
     118 H         0.817426   7.704975   -0.698632 H        1 UNL1     0.0309
     119 H         2.1074   7.838467   -1.93403 H        1 UNL1     0.0309
     120 H         1.369839   6.301998   -1.537265 H        1 UNL1     0.0309
     121 H         -0.462443   6.246921   2.85435 H        1 UNL1     0.0524
     122 H         -2.194999   6.003384   2.59784 H        1 UNL1     0.0524
     123 H         -1.40477   5.280219   4.021327 H        1 UNL1     0.0524
@<TRIPOS>BOND
     1     1     2    1
     2     1    42    1
     3     2     3    2
     4     3     4    1
     5     4     5    2
     6     5     7    1
     7     6    75    1
     8     6    76    1
     9     6    77    1
    10     7     9   am
    11     9    10    1
    12    10    11    2
    13    10    43    1
    14    11    14    1
    15    11    15    1
    16    12    13   ar
    17    12    27   ar
    18    12    43    1
    19    13    14    1
    20    13    30   ar
    21    14    17    2
    22    15    16    1
    23    16    17    1
    24    16    18    1
    25    16    22    1
    26    18    19    1
    27    19    20    1
    28    20    21    1
    29    21    22    1
    30    23    24    1
    31    23    88    1
    32    23    89    1
    33    24    25    1
    34    24    26    1
    35    24    90    1
    36    25    91    1
    37    25    92    1
    38    25    93    1
    39    26    94    1
    40    26    95    1
    41    26    96    1
    42    27    28   ar
    43    28    29   ar
    44    29    30   ar
    45    29    31    1
    46    30    33    1
    47    31    32    1
    48    32    33    1
    49    32    35    1
    50    34    97    1
    51    34    98    1
    52    34    99    1
    53    35    61    1
    54    36    37    1
    55    36    60    1
    56    37    38    1
    57    38    39    1
    58    39    40    1
    59    40    41    1
    60    41    42    1
    61    45   100    1
    62    47   101    1
    63    47   102    1
    64    47   103    1
    65    48   104    1
    66    49   105    1
    67    49   106    1
    68    49   107    1
    69    50   108    1
    70    51    59    1
    71    52   109    1
    72    52   110    1
    73    52   111    1
    74    53    54    1
    75    54    55    2
    76    54    56    1
    77    56   112    1
    78    56   113    1
    79    56   114    1
    80    57   115    1
    81    57   116    1
    82    57   117    1
    83    58   118    1
    84    58   119    1
    85    58   120    1
    86    59   121    1
    87    59   122    1
    88    59   123    1
    89    60    61    2
    90     1    47    1
    91     1    62    1
    92     2    63    1
    93     3    64    1
    94     4    65    1
    95     5     6    1
    96     7     8    2
    97     9    78    1
    98    15    79    1
    99    18    80    1
   100    18    81    1
   101    19    82    1
   102    19    83    1
   103    20    23    1
   104    21    84    1
   105    21    85    1
   106    22    86    1
   107    22    87    1
   108    27    45    1
   109    28    34    1
   110    32    58    1
   111    33    46    2
   112    36    51    1
   113    36    66    1
   114    37    52    1
   115    37    67    1
   116    38    53    1
   117    38    68    1
   118    42    48    1
   119    42    72    1
   120    43    44    2
   121    60    73    1
   122    61    74    1
   123    39    69    1
   124    39    57    1
   125    40    70    1
   126    40    50    1
   127    41    71    1
   128    41    49    1
