@<TRIPOS>MOLECULE
*****
 123 128 0 0 0
SMALL
GASTEIGER

@<TRIPOS>ATOM
     1 C         4.961116   0.928852   2.129862 C.3        1 UNL1     0.0009
     2 C         6.731393   1.345974   1.770462 C.2        1 UNL1     -0.0787
     3 C         8.112436   0.938203   1.620499 C.2        1 UNL1     -0.0649
     4 C         9.42427   1.876163   1.105061 C.2        1 UNL1     -0.0542
     5 C         10.734805   1.843754   0.567913 C.2        1 UNL1     0.0115
     6 C         11.932478   0.913166   0.231896 C.3        1 UNL1     -0.0348
     7 C         11.327871   3.17044   -0.114118 C.2        1 UNL1     0.2441
     8 O         12.129845   3.905043   0.44599 O.2        1 UNL1     -0.2702
     9 N         11.067598   3.292024   -1.490209 N.am        1 UNL1     -0.2772
     10 C         9.861647   3.921483   -1.697054 C.2        1 UNL1     0.1049
     11 C         8.786776   3.15722   -1.62793 C.2        1 UNL1     0.0801
     12 C         8.527733   5.925383   -1.017059 C.ar        1 UNL1     0.0753
     13 C         7.449058   5.021432   -0.756401 C.ar        1 UNL1     0.0305
     14 C         7.502952   3.623736   -1.179005 C.2        1 UNL1     0.0924
     15 N         8.6799   1.817817   -1.594667 N.pl3        1 UNL1     -0.3170
     16 C         7.283474   1.485821   -1.694793 C.3        1 UNL1     0.1275
     17 N         6.568424   2.679827   -1.111033 N.2        1 UNL1     -0.2557
     18 C         6.929198   1.463834   -3.178608 C.3        1 UNL1     0.0016
     19 C         7.858257   0.490204   -3.886055 C.3        1 UNL1     0.0026
     20 N         7.696475   -0.82834   -3.289148 N.3        1 UNL1     -0.3018
     21 C         7.955634   -0.895092   -1.849444 C.3        1 UNL1     0.0026
     22 C         7.008441   0.087239   -1.158253 C.3        1 UNL1     0.0016
     23 C         8.305669   -1.882147   -4.075925 C.3        1 UNL1     0.0012
     24 C         8.661876   -1.368761   -5.479957 C.3        1 UNL1     -0.0339
     25 C         8.501191   -2.471369   -6.539434 C.3        1 UNL1     -0.0615
     26 C         7.825993   -0.145673   -5.814825 C.3        1 UNL1     -0.0615
     27 C         8.420327   7.281986   -0.720059 C.ar        1 UNL1     0.1347
     28 C         7.274137   7.855655   -0.199289 C.ar        1 UNL1     0.0342
     29 C         6.242777   6.938546   0.0946 C.ar        1 UNL1     0.1435
     30 C         6.349525   5.571434   -0.163915 C.ar        1 UNL1     0.0774
     31 O         5.024463   7.35527   0.503327 O.3        1 UNL1     -0.4436
     32 C         4.154197   6.244151   0.240793 C.3        1 UNL1     0.3143
     33 C         5.060092   5.029782   0.211242 C.2        1 UNL1     0.2504
     34 C         6.996702   9.329209   -0.090802 C.3        1 UNL1     -0.0327
     35 O         3.296136   6.096941   1.378912 O.2        1 UNL1     -0.4528
     36 C         0.044973   4.656029   0.051585 C.3        1 UNL1     0.0854
     37 C         -0.197179   3.325776   -0.760396 C.3        1 UNL1     0.0236
     38 C         -1.27007   2.3248   -0.113328 C.3        1 UNL1     0.1131
     39 C         -1.142097   1.913729   1.408813 C.3        1 UNL1     0.0200
     40 C         0.344163   1.519589   2.055436 C.3        1 UNL1     0.0661
     41 C         1.457473   0.424778   1.392457 C.3        1 UNL1     0.0091
     42 C         3.291302   0.416077   1.441429 C.3        1 UNL1     0.0661
     43 C         9.731661   5.386221   -1.696854 C.2        1 UNL1     0.2131
     44 O         10.522309   6.07694   -2.313716 O.2        1 UNL1     -0.2851
     45 O         9.532617   8.08544   -0.962361 O.3        1 UNL1     -0.5056
     46 O         4.784636   3.877908   0.462566 O.2        1 UNL1     -0.2836
     47 C         4.761211   0.690994   3.650863 C.3        1 UNL1     -0.0566
     48 O         3.387868   -1.013619   1.823214 O.3        1 UNL1     -0.3909
     49 C         1.052692   0.119986   -0.032587 C.3        1 UNL1     -0.0577
     50 O         1.016403   2.677301   2.508781 O.3        1 UNL1     -0.3910
     51 O         -0.569515   4.724971   1.318503 O.3        1 UNL1     -0.3753
     52 C         1.113841   2.812521   -1.440649 C.3        1 UNL1     -0.0564
     53 O         -1.739737   1.256232   -1.056675 O.3        1 UNL1     -0.4608
     54 C         -1.494109   1.221345   -2.404406 C.2        1 UNL1     0.3042
     55 O         -2.271422   1.511324   -3.312996 O.2        1 UNL1     -0.2512
     56 C         -0.084906   0.831304   -2.748977 C.3        1 UNL1     0.0332
     57 C         -2.087035   2.889716   2.253038 C.3        1 UNL1     -0.0567
     58 C         3.573781   6.468135   -1.175003 C.3        1 UNL1     0.0210
     59 C         0.248225   5.271112   2.352379 C.3        1 UNL1     0.0372
     60 C         1.474293   5.021956   0.247293 C.2        1 UNL1     -0.0208
     61 C         2.116013   5.449318   1.335549 C.2        1 UNL1     0.0882
     62 H         4.695756   1.975743   1.939298 H        1 UNL1     0.0365
     63 H         6.667416   2.430924   1.66435 H        1 UNL1     0.0576
     64 H         8.408881   -0.111491   1.678562 H        1 UNL1     0.0615
     65 H         9.048476   2.901541   1.158551 H        1 UNL1     0.0622
     66 H         -0.384809   5.446691   -0.579436 H        1 UNL1     0.0645
     67 H         -0.728132   3.659162   -1.668967 H        1 UNL1     0.0362
     68 H         -2.169227   2.957102   -0.17019 H        1 UNL1     0.0741
     69 H         -1.719535   1.0143   1.576144 H        1 UNL1     0.0359
     70 H         0.019517   1.007753   2.981551 H        1 UNL1     0.0600
     71 H         1.146633   -0.504059   1.909755 H        1 UNL1     0.0348
     72 H         2.969123   1.072657   2.262658 H        1 UNL1     0.0602
     73 H         1.966969   5.02107   -0.693195 H        1 UNL1     0.0628
     74 H         1.701961   5.427079   2.344164 H        1 UNL1     0.1022
     75 H         12.156903   0.237065   1.09187 H        1 UNL1     0.0279
     76 H         11.786846   0.211247   -0.586132 H        1 UNL1     0.0279
     77 H         12.88144   1.460313   0.132891 H        1 UNL1     0.0279
     78 H         11.006079   2.36667   -1.909747 H        1 UNL1     0.1553
     79 H         9.409447   1.193458   -1.88599 H        1 UNL1     0.1484
     80 H         5.878924   1.168808   -3.291085 H        1 UNL1     0.0317
     81 H         7.02299   2.462669   -3.618135 H        1 UNL1     0.0317
     82 H         8.906468   0.820238   -3.838673 H        1 UNL1     0.0428
     83 H         7.589516   0.491417   -4.942856 H        1 UNL1     0.0428
     84 H         7.750037   -1.876938   -1.411812 H        1 UNL1     0.0428
     85 H         9.014126   -0.71523   -1.615862 H        1 UNL1     0.0428
     86 H         7.131599   -0.084247   -0.104967 H        1 UNL1     0.0317
     87 H         5.967059   -0.203628   -1.342684 H        1 UNL1     0.0317
     88 H         9.230402   -2.193157   -3.5725 H        1 UNL1     0.0429
     89 H         7.656331   -2.765429   -4.130209 H        1 UNL1     0.0429
     90 H         9.704484   -1.029406   -5.484509 H        1 UNL1     0.0308
     91 H         7.55593   -3.008057   -6.414731 H        1 UNL1     0.0233
     92 H         8.543666   -2.048948   -7.546095 H        1 UNL1     0.0233
     93 H         9.301169   -3.219842   -6.48789 H        1 UNL1     0.0233
     94 H         7.77519   -0.008589   -6.900395 H        1 UNL1     0.0233
     95 H         6.8058   -0.277267   -5.443541 H        1 UNL1     0.0233
     96 H         8.248861   0.76022   -5.371532 H        1 UNL1     0.0233
     97 H         6.843681   9.640331   0.938284 H        1 UNL1     0.0280
     98 H         7.830412   9.936108   -0.467441 H        1 UNL1     0.0280
     99 H         6.089228   9.577163   -0.665349 H        1 UNL1     0.0280
     100 H         9.349357   8.872868   -1.444021 H        1 UNL1     0.2922
     101 H         3.808746   1.115619   3.967341 H        1 UNL1     0.0236
     102 H         5.591984   1.054949   4.254466 H        1 UNL1     0.0236
     103 H         4.684633   -0.381553   3.895755 H        1 UNL1     0.0236
     104 H         3.815329   -1.488192   1.0836 H        1 UNL1     0.2098
     105 H         1.275371   0.912969   -0.742096 H        1 UNL1     0.0234
     106 H         1.408829   -0.837596   -0.412234 H        1 UNL1     0.0234
     107 H         0.0   -0.0   0.0 H        1 UNL1     0.0234
     108 H         1.949045   2.430493   2.660545 H        1 UNL1     0.2098
     109 H         1.255224   3.236837   -2.444481 H        1 UNL1     0.0234
     110 H         2.010354   2.991841   -0.837447 H        1 UNL1     0.0234
     111 H         1.098841   1.723075   -1.577865 H        1 UNL1     0.0234
     112 H         -0.02378   0.551845   -3.805155 H        1 UNL1     0.0342
     113 H         0.627911   1.619557   -2.511505 H        1 UNL1     0.0342
     114 H         0.182865   -0.050792   -2.151172 H        1 UNL1     0.0342
     115 H         -2.465949   2.40481   3.163246 H        1 UNL1     0.0234
     116 H         -1.606149   3.822617   2.553859 H        1 UNL1     0.0234
     117 H         -3.029803   3.143089   1.738323 H        1 UNL1     0.0234
     118 H         2.603479   5.959087   -1.310614 H        1 UNL1     0.0309
     119 H         3.461826   7.526513   -1.430943 H        1 UNL1     0.0309
     120 H         4.200273   6.030922   -1.960152 H        1 UNL1     0.0309
     121 H         -0.106644   4.868536   3.300723 H        1 UNL1     0.0524
     122 H         1.307084   4.982573   2.244682 H        1 UNL1     0.0524
     123 H         0.176685   6.355072   2.355068 H        1 UNL1     0.0524
@<TRIPOS>BOND
     1     1     2    1
     2     1    42    1
     3     2     3    2
     4     3     4    1
     5     4     5    2
     6     5     7    1
     7     6    75    1
     8     6    76    1
     9     6    77    1
    10     7     9   am
    11     9    10    1
    12    10    11    2
    13    10    43    1
    14    11    14    1
    15    11    15    1
    16    12    13   ar
    17    12    27   ar
    18    12    43    1
    19    13    14    1
    20    13    30   ar
    21    14    17    2
    22    15    16    1
    23    16    17    1
    24    16    18    1
    25    16    22    1
    26    18    19    1
    27    19    20    1
    28    20    21    1
    29    21    22    1
    30    23    24    1
    31    23    88    1
    32    23    89    1
    33    24    25    1
    34    24    26    1
    35    24    90    1
    36    25    91    1
    37    25    92    1
    38    25    93    1
    39    26    94    1
    40    26    95    1
    41    26    96    1
    42    27    28   ar
    43    28    29   ar
    44    29    30   ar
    45    29    31    1
    46    30    33    1
    47    31    32    1
    48    32    33    1
    49    32    35    1
    50    34    97    1
    51    34    98    1
    52    34    99    1
    53    35    61    1
    54    36    37    1
    55    36    60    1
    56    37    38    1
    57    38    39    1
    58    39    40    1
    59    40    41    1
    60    41    42    1
    61    45   100    1
    62    47   101    1
    63    47   102    1
    64    47   103    1
    65    48   104    1
    66    49   105    1
    67    49   106    1
    68    49   107    1
    69    50   108    1
    70    51    59    1
    71    52   109    1
    72    52   110    1
    73    52   111    1
    74    53    54    1
    75    54    55    2
    76    54    56    1
    77    56   112    1
    78    56   113    1
    79    56   114    1
    80    57   115    1
    81    57   116    1
    82    57   117    1
    83    58   118    1
    84    58   119    1
    85    58   120    1
    86    59   121    1
    87    59   122    1
    88    59   123    1
    89    60    61    2
    90     1    47    1
    91     1    62    1
    92     2    63    1
    93     3    64    1
    94     4    65    1
    95     5     6    1
    96     7     8    2
    97     9    78    1
    98    15    79    1
    99    18    80    1
   100    18    81    1
   101    19    82    1
   102    19    83    1
   103    20    23    1
   104    21    84    1
   105    21    85    1
   106    22    86    1
   107    22    87    1
   108    27    45    1
   109    28    34    1
   110    32    58    1
   111    33    46    2
   112    36    51    1
   113    36    66    1
   114    37    52    1
   115    37    67    1
   116    38    53    1
   117    38    68    1
   118    42    48    1
   119    42    72    1
   120    43    44    2
   121    60    73    1
   122    61    74    1
   123    39    69    1
   124    39    57    1
   125    40    70    1
   126    40    50    1
   127    41    71    1
   128    41    49    1
