@<TRIPOS>MOLECULE
*****
 123 128 0 0 0
SMALL
GASTEIGER

@<TRIPOS>ATOM
     1 C         3.749971   3.621601   1.100731 C.3        1 UNL1     0.0009
     2 C         4.243406   5.365781   0.711637 C.2        1 UNL1     -0.0787
     3 C         5.159631   6.30524   0.100085 C.2        1 UNL1     -0.0649
     4 C         4.992162   7.984587   -0.034467 C.2        1 UNL1     -0.0542
     5 C         5.41752   9.141556   -0.732729 C.2        1 UNL1     0.0115
     6 C         6.456074   9.682269   -1.753689 C.3        1 UNL1     -0.0348
     7 C         4.524995   10.473071   -0.646384 C.2        1 UNL1     0.2441
     8 O         4.815755   11.424008   0.06615 O.2        1 UNL1     -0.2702
     9 N         3.532104   10.581756   -1.635579 N.am        1 UNL1     -0.2772
     10 C         2.370799   9.972317   -1.219314 C.2        1 UNL1     0.1049
     11 C         2.306084   8.664405   -1.390777 C.2        1 UNL1     0.0801
     12 C         0.782644   9.836935   0.708579 C.ar        1 UNL1     0.0753
     13 C         0.911135   8.41461   0.613233 C.ar        1 UNL1     0.0305
     14 C         1.574384   7.780787   -0.524053 C.2        1 UNL1     0.0924
     15 N         3.103254   7.845438   -2.098126 N.pl3        1 UNL1     -0.3170
     16 C         2.499442   6.539431   -2.101454 C.3        1 UNL1     0.1275
     17 N         1.697004   6.490895   -0.824168 N.2        1 UNL1     -0.2557
     18 C         1.484608   6.513375   -3.240373 C.3        1 UNL1     0.0016
     19 C         2.195334   6.879718   -4.533528 C.3        1 UNL1     0.0026
     20 N         3.267803   5.922067   -4.765354 N.3        1 UNL1     -0.3018
     21 C         4.261751   5.830309   -3.693898 C.3        1 UNL1     0.0026
     22 C         3.526623   5.456836   -2.405489 C.3        1 UNL1     0.0016
     23 C         3.810982   5.997522   -6.10696 C.3        1 UNL1     0.0012
     24 C         2.795451   5.464685   -7.129964 C.3        1 UNL1     -0.0339
     25 C         1.970912   6.604723   -7.750048 C.3        1 UNL1     -0.0615
     26 C         3.507718   4.647365   -8.193658 C.3        1 UNL1     -0.0615
     27 C         0.045269   10.428027   1.731813 C.ar        1 UNL1     0.1347
     28 C         -0.638418   9.701886   2.690636 C.ar        1 UNL1     0.0342
     29 C         -0.457398   8.305041   2.605658 C.ar        1 UNL1     0.1435
     30 C         0.307894   7.700555   1.607587 C.ar        1 UNL1     0.0774
     31 O         -1.145293   7.455663   3.399612 O.3        1 UNL1     -0.4436
     32 C         -1.070023   6.189477   2.727317 C.3        1 UNL1     0.3143
     33 C         0.16092   6.280257   1.848255 C.2        1 UNL1     0.2504
     34 C         -1.647032   10.251995   3.660263 C.3        1 UNL1     -0.0327
     35 O         -0.7997   5.194328   3.722231 O.2        1 UNL1     -0.4528
     36 C         -2.405826   1.995812   2.458132 C.3        1 UNL1     0.0854
     37 C         -2.164325   1.228288   1.101627 C.3        1 UNL1     0.0236
     38 C         -1.75414   -0.313781   1.261367 C.3        1 UNL1     0.1131
     39 C         -0.569623   -0.714859   2.230038 C.3        1 UNL1     0.0200
     40 C         0.844357   0.169906   2.247021 C.3        1 UNL1     0.0661
     41 C         1.755383   0.613426   0.886531 C.3        1 UNL1     0.0091
     42 C         2.779381   2.103127   0.574087 C.3        1 UNL1     0.0661
     43 C         1.386272   10.658709   -0.369651 C.2        1 UNL1     0.2131
     44 O         1.034298   11.795774   -0.626428 O.2        1 UNL1     -0.2851
     45 O         0.008037   11.820086   1.778966 O.3        1 UNL1     -0.5056
     46 O         0.872949   5.383994   1.453817 O.2        1 UNL1     -0.2836
     47 C         4.648538   3.045689   2.228066 C.3        1 UNL1     -0.0566
     48 O         3.939478   1.337175   0.057745 O.3        1 UNL1     -0.3909
     49 C         0.922964   0.381908   -0.354828 C.3        1 UNL1     -0.0577
     50 O         0.740644   1.263425   3.136507 O.3        1 UNL1     -0.3910
     51 O         -2.066157   1.293404   3.632304 O.3        1 UNL1     -0.3753
     52 C         -1.51926   2.151977   0.017358 C.3        1 UNL1     -0.0564
     53 O         -1.873057   -1.101704   -0.010389 O.3        1 UNL1     -0.4608
     54 C         -1.242455   -2.290036   -0.271421 C.2        1 UNL1     0.3042
     55 O         -0.34286   -2.495146   -1.08536 O.2        1 UNL1     -0.2512
     56 C         -1.704535   -3.42083   0.602937 C.3        1 UNL1     0.0332
     57 C         -1.213234   -1.118416   3.637547 C.3        1 UNL1     -0.0567
     58 C         -2.322234   6.098514   1.82442 C.3        1 UNL1     0.0210
     59 C         -2.820138   1.657243   4.787726 C.3        1 UNL1     0.0372
     60 C         -1.751498   3.329359   2.551231 C.2        1 UNL1     -0.0208
     61 C         -1.057566   3.884215   3.545886 C.2        1 UNL1     0.0882
     62 H         2.845521   4.006305   1.587234 H        1 UNL1     0.0365
     63 H         3.471663   5.920475   1.249407 H        1 UNL1     0.0576
     64 H         6.007875   5.969179   -0.500459 H        1 UNL1     0.0615
     65 H         4.179154   8.221652   0.657126 H        1 UNL1     0.0622
     66 H         -3.487657   2.189009   2.477141 H        1 UNL1     0.0645
     67 H         -3.171946   1.142653   0.65899 H        1 UNL1     0.0362
     68 H         -2.666823   -0.698073   1.741836 H        1 UNL1     0.0741
     69 H         -0.225755   -1.7064   1.967341 H        1 UNL1     0.0359
     70 H         1.51094   -0.545832   2.765138 H        1 UNL1     0.0600
     71 H         2.459109   -0.240625   0.838344 H        1 UNL1     0.0348
     72 H         2.658711   2.04152   1.665398 H        1 UNL1     0.0602
     73 H         -2.015312   3.907954   1.701009 H        1 UNL1     0.0628
     74 H         -0.698394   3.344877   4.423011 H        1 UNL1     0.1022
     75 H         7.141594   8.865529   -2.085401 H        1 UNL1     0.0279
     76 H         6.061283   10.054125   -2.696521 H        1 UNL1     0.0279
     77 H         7.165852   10.391456   -1.303168 H        1 UNL1     0.0279
     78 H         3.839847   10.10846   -2.482552 H        1 UNL1     0.1553
     79 H         3.722893   8.159808   -2.822109 H        1 UNL1     0.1484
     80 H         1.037799   5.513489   -3.298302 H        1 UNL1     0.0317
     81 H         0.663776   7.212887   -3.049143 H        1 UNL1     0.0317
     82 H         2.582451   7.908987   -4.507853 H        1 UNL1     0.0428
     83 H         1.453146   6.856834   -5.332078 H        1 UNL1     0.0428
     84 H         5.010493   5.048681   -3.855933 H        1 UNL1     0.0428
     85 H         4.853219   6.752032   -3.604966 H        1 UNL1     0.0428
     86 H         4.294458   5.268829   -1.678117 H        1 UNL1     0.0317
     87 H         3.041427   4.479891   -2.520638 H        1 UNL1     0.0317
     88 H         4.015197   7.052072   -6.333932 H        1 UNL1     0.0429
     89 H         4.766092   5.46177   -6.181181 H        1 UNL1     0.0429
     90 H         2.110306   4.771146   -6.628174 H        1 UNL1     0.0308
     91 H         2.615617   7.342769   -8.236613 H        1 UNL1     0.0233
     92 H         1.258916   6.213445   -8.480508 H        1 UNL1     0.0233
     93 H         1.376808   7.144691   -7.002846 H        1 UNL1     0.0233
     94 H         2.824615   4.427074   -9.021111 H        1 UNL1     0.0233
     95 H         4.352953   5.212932   -8.595744 H        1 UNL1     0.0233
     96 H         3.876867   3.700837   -7.78896 H        1 UNL1     0.0233
     97 H         -2.074201   9.475713   4.288072 H        1 UNL1     0.0280
     98 H         -1.203686   10.984304   4.347593 H        1 UNL1     0.0280
     99 H         -2.46638   10.737131   3.10492 H        1 UNL1     0.0280
     100 H         0.853029   12.234197   1.790063 H        1 UNL1     0.2922
     101 H         4.323842   2.035654   2.477181 H        1 UNL1     0.0236
     102 H         4.698112   3.687776   3.106843 H        1 UNL1     0.0236
     103 H         5.69652   2.930925   1.904407 H        1 UNL1     0.0236
     104 H         4.554832   1.195376   0.803536 H        1 UNL1     0.2098
     105 H         0.712488   1.280991   -0.928553 H        1 UNL1     0.0234
     106 H         1.292382   -0.406652   -1.010291 H        1 UNL1     0.0234
     107 H         0.0   -0.0   0.0 H        1 UNL1     0.0234
     108 H         0.049046   1.857512   2.786478 H        1 UNL1     0.2098
     109 H         -0.545953   2.550511   0.336039 H        1 UNL1     0.0234
     110 H         -1.413715   1.663014   -0.957074 H        1 UNL1     0.0234
     111 H         -2.145732   3.029381   -0.191544 H        1 UNL1     0.0234
     112 H         -1.161392   -4.335474   0.346485 H        1 UNL1     0.0342
     113 H         -1.600677   -3.188617   1.661774 H        1 UNL1     0.0342
     114 H         -2.770819   -3.595178   0.403422 H        1 UNL1     0.0342
     115 H         -1.899551   -1.971219   3.543291 H        1 UNL1     0.0234
     116 H         -0.479166   -1.370986   4.405273 H        1 UNL1     0.0234
     117 H         -1.886523   -0.347672   4.050556 H        1 UNL1     0.0234
     118 H         -3.211537   5.756326   2.382142 H        1 UNL1     0.0309
     119 H         -2.55699   7.040777   1.319214 H        1 UNL1     0.0309
     120 H         -2.216301   5.348372   1.033109 H        1 UNL1     0.0309
     121 H         -2.621506   2.708723   4.993375 H        1 UNL1     0.0524
     122 H         -3.906142   1.549285   4.629685 H        1 UNL1     0.0524
     123 H         -2.524997   1.04702   5.636616 H        1 UNL1     0.0524
@<TRIPOS>BOND
     1     1     2    1
     2     1    42    1
     3     2     3    2
     4     3     4    1
     5     4     5    2
     6     5     7    1
     7     6    75    1
     8     6    76    1
     9     6    77    1
    10     7     9   am
    11     9    10    1
    12    10    11    2
    13    10    43    1
    14    11    14    1
    15    11    15    1
    16    12    13   ar
    17    12    27   ar
    18    12    43    1
    19    13    14    1
    20    13    30   ar
    21    14    17    2
    22    15    16    1
    23    16    17    1
    24    16    18    1
    25    16    22    1
    26    18    19    1
    27    19    20    1
    28    20    21    1
    29    21    22    1
    30    23    24    1
    31    23    88    1
    32    23    89    1
    33    24    25    1
    34    24    26    1
    35    24    90    1
    36    25    91    1
    37    25    92    1
    38    25    93    1
    39    26    94    1
    40    26    95    1
    41    26    96    1
    42    27    28   ar
    43    28    29   ar
    44    29    30   ar
    45    29    31    1
    46    30    33    1
    47    31    32    1
    48    32    33    1
    49    32    35    1
    50    34    97    1
    51    34    98    1
    52    34    99    1
    53    35    61    1
    54    36    37    1
    55    36    60    1
    56    37    38    1
    57    38    39    1
    58    39    40    1
    59    40    41    1
    60    41    42    1
    61    45   100    1
    62    47   101    1
    63    47   102    1
    64    47   103    1
    65    48   104    1
    66    49   105    1
    67    49   106    1
    68    49   107    1
    69    50   108    1
    70    51    59    1
    71    52   109    1
    72    52   110    1
    73    52   111    1
    74    53    54    1
    75    54    55    2
    76    54    56    1
    77    56   112    1
    78    56   113    1
    79    56   114    1
    80    57   115    1
    81    57   116    1
    82    57   117    1
    83    58   118    1
    84    58   119    1
    85    58   120    1
    86    59   121    1
    87    59   122    1
    88    59   123    1
    89    60    61    2
    90     1    47    1
    91     1    62    1
    92     2    63    1
    93     3    64    1
    94     4    65    1
    95     5     6    1
    96     7     8    2
    97     9    78    1
    98    15    79    1
    99    18    80    1
   100    18    81    1
   101    19    82    1
   102    19    83    1
   103    20    23    1
   104    21    84    1
   105    21    85    1
   106    22    86    1
   107    22    87    1
   108    27    45    1
   109    28    34    1
   110    32    58    1
   111    33    46    2
   112    36    51    1
   113    36    66    1
   114    37    52    1
   115    37    67    1
   116    38    53    1
   117    38    68    1
   118    42    48    1
   119    42    72    1
   120    43    44    2
   121    60    73    1
   122    61    74    1
   123    39    69    1
   124    39    57    1
   125    40    70    1
   126    40    50    1
   127    41    71    1
   128    41    49    1
