@<TRIPOS>MOLECULE
*****
 123 128 0 0 0
SMALL
GASTEIGER

@<TRIPOS>ATOM
     1 C         5.048604   -0.493011   -2.068247 C.3        1 UNL1     0.0009
     2 C         6.099607   -0.393403   -3.592224 C.2        1 UNL1     -0.0787
     3 C         6.81034   -1.0443   -4.672612 C.2        1 UNL1     -0.0649
     4 C         7.587992   -0.321097   -5.991169 C.2        1 UNL1     -0.0542
     5 C         8.086014   -0.527317   -7.301331 C.2        1 UNL1     0.0115
     6 C         8.403253   -1.610166   -8.369095 C.3        1 UNL1     -0.0348
     7 C         8.372715   0.748041   -8.233131 C.2        1 UNL1     0.2441
     8 O         9.496617   1.189297   -8.429758 O.2        1 UNL1     -0.2702
     9 N         7.28067   1.163972   -9.014534 N.am        1 UNL1     -0.2772
     10 C         6.500974   2.05555   -8.314188 C.2        1 UNL1     0.1049
     11 C         5.620925   1.530023   -7.481386 C.2        1 UNL1     0.0801
     12 C         6.621856   4.137853   -6.933342 C.ar        1 UNL1     0.0753
     13 C         5.83362   3.444597   -5.960364 C.ar        1 UNL1     0.0305
     14 C         5.197839   2.164085   -6.262231 C.2        1 UNL1     0.0924
     15 N         5.208243   0.257582   -7.350562 N.pl3        1 UNL1     -0.3170
     16 C         4.113341   0.244512   -6.417142 C.3        1 UNL1     0.1275
     17 N         4.362182   1.436938   -5.526118 N.2        1 UNL1     -0.2557
     18 C         2.844872   0.560933   -7.203631 C.3        1 UNL1     0.0016
     19 C         2.713846   -0.441651   -8.339081 C.3        1 UNL1     0.0026
     20 N         2.659469   -1.78311   -7.774669 N.3        1 UNL1     -0.3018
     21 C         3.809622   -2.157393   -6.949182 C.3        1 UNL1     0.0026
     22 C         3.919634   -1.139795   -5.812395 C.3        1 UNL1     0.0016
     23 C         2.23756   -2.782612   -8.735726 C.3        1 UNL1     0.0012
     24 C         1.230274   -3.75208   -8.097553 C.3        1 UNL1     -0.0339
     25 C         1.340153   -3.748168   -6.56394 C.3        1 UNL1     -0.0615
     26 C         -0.177892   -3.417587   -8.557948 C.3        1 UNL1     -0.0615
     27 C         7.12384   5.412267   -6.680361 C.ar        1 UNL1     0.1347
     28 C         6.871719   6.108181   -5.511519 C.ar        1 UNL1     0.0342
     29 C         6.134562   5.386569   -4.548691 C.ar        1 UNL1     0.1435
     30 C         5.65587   4.095324   -4.773994 C.ar        1 UNL1     0.0774
     31 O         5.714055   5.966356   -3.403253 O.3        1 UNL1     -0.4436
     32 C         4.647654   5.123954   -2.940629 C.3        1 UNL1     0.3143
     33 C         4.904028   3.773763   -3.578963 C.2        1 UNL1     0.2504
     34 C         7.161345   7.563824   -5.272103 C.3        1 UNL1     -0.0327
     35 O         4.819134   4.956812   -1.527862 O.2        1 UNL1     -0.4528
     36 C         1.332437   4.478727   -0.105727 C.3        1 UNL1     0.0854
     37 C         0.247645   3.393638   -0.470874 C.3        1 UNL1     0.0236
     38 C         -0.296121   2.536993   0.770988 C.3        1 UNL1     0.1131
     39 C         0.729514   1.843866   1.755832 C.3        1 UNL1     0.0200
     40 C         2.064796   1.042412   1.158227 C.3        1 UNL1     0.0661
     41 C         2.054985   -0.122744   -0.074626 C.3        1 UNL1     0.0091
     42 C         3.31496   -0.518698   -1.347844 C.3        1 UNL1     0.0661
     43 C         6.812166   3.491544   -8.255585 C.2        1 UNL1     0.2131
     44 O         7.103391   4.10263   -9.267761 O.2        1 UNL1     -0.2851
     45 O         7.919961   5.998624   -7.662101 O.3        1 UNL1     -0.5056
     46 O         4.580042   2.677711   -3.179519 O.2        1 UNL1     -0.2836
     47 C         5.900883   -0.951554   -0.854434 C.3        1 UNL1     -0.0566
     48 O         3.254816   -1.982137   -1.115794 O.3        1 UNL1     -0.3909
     49 C         0.716417   -0.07844   -0.777312 C.3        1 UNL1     -0.0577
     50 O         3.143031   1.936551   0.969424 O.3        1 UNL1     -0.3910
     51 O         1.81483   4.446267   1.218537 O.3        1 UNL1     -0.3753
     52 C         0.516423   2.75021   -1.870412 C.3        1 UNL1     -0.0564
     53 O         -1.552959   1.774072   0.469928 O.3        1 UNL1     -0.4608
     54 C         -1.872991   0.539422   0.971074 C.2        1 UNL1     0.3042
     55 O         -1.104363   -0.296692   1.444321 O.2        1 UNL1     -0.2512
     56 C         -3.34755   0.252418   0.966844 C.3        1 UNL1     0.0332
     57 C         0.945043   2.827626   2.998385 C.3        1 UNL1     -0.0567
     58 C         3.341543   5.711614   -3.523946 C.3        1 UNL1     0.0210
     59 C         2.291802   5.696607   1.713526 C.3        1 UNL1     0.0372
     60 C         2.524634   4.500614   -0.996427 C.2        1 UNL1     -0.0208
     61 C         3.822563   4.585287   -0.701543 C.2        1 UNL1     0.0882
     62 H         5.023734   0.602944   -2.037001 H        1 UNL1     0.0365
     63 H         6.278339   0.682516   -3.646306 H        1 UNL1     0.0576
     64 H         6.763729   -2.125764   -4.818797 H        1 UNL1     0.0615
     65 H         7.651907   0.733491   -5.70967 H        1 UNL1     0.0622
     66 H         0.823464   5.44062   -0.25985 H        1 UNL1     0.0645
     67 H         -0.645155   3.985956   -0.736629 H        1 UNL1     0.0362
     68 H         -0.765896   3.341201   1.357574 H        1 UNL1     0.0741
     69 H         0.213814   1.068035   2.305875 H        1 UNL1     0.0359
     70 H         2.348035   0.452049   2.050588 H        1 UNL1     0.0600
     71 H         1.951679   -1.0443   0.531195 H        1 UNL1     0.0348
     72 H         3.844978   0.033212   -0.558039 H        1 UNL1     0.0602
     73 H         2.204666   4.565551   -2.0067 H        1 UNL1     0.0628
     74 H         4.235986   4.46972   0.300935 H        1 UNL1     0.1022
     75 H         8.574825   -2.601058   -7.883574 H        1 UNL1     0.0279
     76 H         7.613937   -1.832901   -9.083545 H        1 UNL1     0.0279
     77 H         9.368433   -1.443964   -8.869602 H        1 UNL1     0.0279
     78 H         6.698079   0.361181   -9.242989 H        1 UNL1     0.1553
     79 H         5.325994   -0.441906   -8.060339 H        1 UNL1     0.1484
     80 H         1.983379   0.514119   -6.526575 H        1 UNL1     0.0317
     81 H         2.875534   1.580815   -7.601817 H        1 UNL1     0.0317
     82 H         3.538499   -0.349133   -9.061092 H        1 UNL1     0.0428
     83 H         1.804005   -0.196666   -8.887919 H        1 UNL1     0.0428
     84 H         3.70737   -3.137495   -6.472992 H        1 UNL1     0.0428
     85 H         4.728989   -2.24465   -7.544554 H        1 UNL1     0.0428
     86 H         4.683237   -1.517892   -5.158222 H        1 UNL1     0.0317
     87 H         3.015515   -1.171625   -5.192193 H        1 UNL1     0.0317
     88 H         1.745529   -2.267135   -9.570881 H        1 UNL1     0.0429
     89 H         3.097275   -3.322708   -9.152811 H        1 UNL1     0.0429
     90 H         1.430406   -4.76758   -8.45938 H        1 UNL1     0.0308
     91 H         1.5939   -4.741117   -6.180839 H        1 UNL1     0.0233
     92 H         2.095809   -3.032053   -6.232623 H        1 UNL1     0.0233
     93 H         0.402804   -3.450013   -6.078846 H        1 UNL1     0.0233
     94 H         -0.913327   -3.893838   -7.900562 H        1 UNL1     0.0233
     95 H         -0.337956   -2.336593   -8.515593 H        1 UNL1     0.0233
     96 H         -0.355357   -3.760886   -9.580993 H        1 UNL1     0.0233
     97 H         6.831006   7.888835   -4.290026 H        1 UNL1     0.0280
     98 H         8.235847   7.784662   -5.316067 H        1 UNL1     0.0280
     99 H         6.64247   8.172912   -6.030309 H        1 UNL1     0.0280
     100 H         8.624533   5.456244   -7.970363 H        1 UNL1     0.2922
     101 H         6.813951   -0.35897   -0.801458 H        1 UNL1     0.0236
     102 H         6.10708   -2.021351   -0.855134 H        1 UNL1     0.0236
     103 H         5.389809   -0.764503   0.104736 H        1 UNL1     0.0236
     104 H         2.524462   -2.151623   -0.489035 H        1 UNL1     0.2098
     105 H         0.584406   0.774149   -1.438733 H        1 UNL1     0.0234
     106 H         0.440172   -1.000103   -1.28932 H        1 UNL1     0.0234
     107 H         -0.0   0.0   0.0 H        1 UNL1     0.0234
     108 H         3.903424   1.411452   0.653446 H        1 UNL1     0.2098
     109 H         1.307853   3.27436   -2.424142 H        1 UNL1     0.0234
     110 H         0.753794   1.682361   -1.814748 H        1 UNL1     0.0234
     111 H         -0.373348   2.791995   -2.512679 H        1 UNL1     0.0234
     112 H         -3.841305   0.829665   1.754459 H        1 UNL1     0.0342
     113 H         -3.800258   0.449013   -0.003852 H        1 UNL1     0.0342
     114 H         -3.490222   -0.813703   1.190885 H        1 UNL1     0.0342
     115 H         1.104104   2.274585   3.934351 H        1 UNL1     0.0234
     116 H         1.782634   3.517601   2.878276 H        1 UNL1     0.0234
     117 H         0.04901   3.420393   3.250762 H        1 UNL1     0.0234
     118 H         2.745642   6.238359   -2.758147 H        1 UNL1     0.0309
     119 H         3.513518   6.384978   -4.369645 H        1 UNL1     0.0309
     120 H         2.657585   4.936884   -3.887403 H        1 UNL1     0.0309
     121 H         1.924114   6.476752   1.047542 H        1 UNL1     0.0524
     122 H         1.91298   5.918033   2.725208 H        1 UNL1     0.0524
     123 H         3.377902   5.702877   1.734525 H        1 UNL1     0.0524
@<TRIPOS>BOND
     1     1     2    1
     2     1    42    1
     3     2     3    2
     4     3     4    1
     5     4     5    2
     6     5     7    1
     7     6    75    1
     8     6    76    1
     9     6    77    1
    10     7     9   am
    11     9    10    1
    12    10    11    2
    13    10    43    1
    14    11    14    1
    15    11    15    1
    16    12    13   ar
    17    12    27   ar
    18    12    43    1
    19    13    14    1
    20    13    30   ar
    21    14    17    2
    22    15    16    1
    23    16    17    1
    24    16    18    1
    25    16    22    1
    26    18    19    1
    27    19    20    1
    28    20    21    1
    29    21    22    1
    30    23    24    1
    31    23    88    1
    32    23    89    1
    33    24    25    1
    34    24    26    1
    35    24    90    1
    36    25    91    1
    37    25    92    1
    38    25    93    1
    39    26    94    1
    40    26    95    1
    41    26    96    1
    42    27    28   ar
    43    28    29   ar
    44    29    30   ar
    45    29    31    1
    46    30    33    1
    47    31    32    1
    48    32    33    1
    49    32    35    1
    50    34    97    1
    51    34    98    1
    52    34    99    1
    53    35    61    1
    54    36    37    1
    55    36    60    1
    56    37    38    1
    57    38    39    1
    58    39    40    1
    59    40    41    1
    60    41    42    1
    61    45   100    1
    62    47   101    1
    63    47   102    1
    64    47   103    1
    65    48   104    1
    66    49   105    1
    67    49   106    1
    68    49   107    1
    69    50   108    1
    70    51    59    1
    71    52   109    1
    72    52   110    1
    73    52   111    1
    74    53    54    1
    75    54    55    2
    76    54    56    1
    77    56   112    1
    78    56   113    1
    79    56   114    1
    80    57   115    1
    81    57   116    1
    82    57   117    1
    83    58   118    1
    84    58   119    1
    85    58   120    1
    86    59   121    1
    87    59   122    1
    88    59   123    1
    89    60    61    2
    90     1    47    1
    91     1    62    1
    92     2    63    1
    93     3    64    1
    94     4    65    1
    95     5     6    1
    96     7     8    2
    97     9    78    1
    98    15    79    1
    99    18    80    1
   100    18    81    1
   101    19    82    1
   102    19    83    1
   103    20    23    1
   104    21    84    1
   105    21    85    1
   106    22    86    1
   107    22    87    1
   108    27    45    1
   109    28    34    1
   110    32    58    1
   111    33    46    2
   112    36    51    1
   113    36    66    1
   114    37    52    1
   115    37    67    1
   116    38    53    1
   117    38    68    1
   118    42    48    1
   119    42    72    1
   120    43    44    2
   121    60    73    1
   122    61    74    1
   123    39    69    1
   124    39    57    1
   125    40    70    1
   126    40    50    1
   127    41    71    1
   128    41    49    1
