@<TRIPOS>MOLECULE
*****
 123 128 0 0 0
SMALL
GASTEIGER

@<TRIPOS>ATOM
     1 C         0.842502   3.3974   -2.391416 C.3        1 UNL1     0.0009
     2 C         -0.008227   3.920575   -3.953333 C.2        1 UNL1     -0.0787
     3 C         -0.018184   4.050674   -5.395214 C.2        1 UNL1     -0.0649
     4 C         -1.290655   4.568818   -6.384507 C.2        1 UNL1     -0.0542
     5 C         -1.812859   4.56559   -7.701462 C.2        1 UNL1     0.0115
     6 C         -1.489959   4.216722   -9.180432 C.3        1 UNL1     -0.0348
     7 C         -3.363906   4.915111   -7.922998 C.2        1 UNL1     0.2441
     8 O         -3.749826   6.004445   -8.324177 O.2        1 UNL1     -0.2702
     9 N         -4.229528   3.808463   -7.876318 N.am        1 UNL1     -0.2772
     10 C         -4.635973   3.570933   -6.583374 C.2        1 UNL1     0.1049
     11 C         -3.80605   2.870594   -5.831726 C.2        1 UNL1     0.0801
     12 C         -5.575004   4.702479   -4.559724 C.ar        1 UNL1     0.0753
     13 C         -4.521075   4.079097   -3.81862 C.ar        1 UNL1     0.0305
     14 C         -3.682103   3.03868   -4.409137 C.2        1 UNL1     0.0924
     15 N         -2.714594   2.165721   -6.175827 N.pl3        1 UNL1     -0.3170
     16 C         -2.26856   1.449542   -5.010325 C.3        1 UNL1     0.1275
     17 N         -2.736183   2.290887   -3.847917 N.2        1 UNL1     -0.2557
     18 C         -3.068703   0.152256   -4.943066 C.3        1 UNL1     0.0016
     19 C         -2.885097   -0.600754   -6.251062 C.3        1 UNL1     0.0026
     20 N         -1.466373   -0.869438   -6.440956 N.3        1 UNL1     -0.3018
     21 C         -0.605962   0.31538   -6.457358 C.3        1 UNL1     0.0026
     22 C         -0.802871   1.054074   -5.132423 C.3        1 UNL1     0.0016
     23 C         -1.210775   -1.833028   -7.493005 C.3        1 UNL1     0.0012
     24 C         -1.663313   -3.23631   -7.059687 C.3        1 UNL1     -0.0339
     25 C         -0.749517   -4.326853   -7.642567 C.3        1 UNL1     -0.0615
     26 C         -1.732954   -3.316335   -5.544587 C.3        1 UNL1     -0.0615
     27 C         -6.446748   5.604879   -3.954864 C.ar        1 UNL1     0.1347
     28 C         -6.388548   5.930982   -2.611614 C.ar        1 UNL1     0.0342
     29 C         -5.312857   5.342677   -1.913078 C.ar        1 UNL1     0.1435
     30 C         -4.409928   4.464894   -2.514272 C.ar        1 UNL1     0.0774
     31 O         -5.185052   5.475085   -0.574743 O.3        1 UNL1     -0.4436
     32 C         -4.314799   4.40173   -0.185589 C.3        1 UNL1     0.3143
     33 C         -3.536096   4.049573   -1.436917 C.2        1 UNL1     0.2504
     34 C         -7.434212   6.689112   -1.842248 C.3        1 UNL1     -0.0327
     35 O         -3.374374   4.935379   0.754662 O.2        1 UNL1     -0.4528
     36 C         -2.459285   2.059893   3.05733 C.3        1 UNL1     0.0854
     37 C         -1.852307   0.649441   2.697157 C.3        1 UNL1     0.0236
     38 C         -0.494092   0.281746   3.466441 C.3        1 UNL1     0.1131
     39 C         0.708837   1.308984   3.470304 C.3        1 UNL1     0.0200
     40 C         1.14187   2.108185   2.071663 C.3        1 UNL1     0.0661
     41 C         1.414862   1.388606   0.559945 C.3        1 UNL1     0.0091
     42 C         1.129827   2.033267   -1.133741 C.3        1 UNL1     0.0661
     43 C         -5.764688   4.288352   -5.97209 C.2        1 UNL1     0.2131
     44 O         -6.811687   4.424742   -6.57866 O.2        1 UNL1     -0.2851
     45 O         -7.41667   6.20172   -4.757652 O.3        1 UNL1     -0.5056
     46 O         -2.433336   3.557572   -1.524708 O.2        1 UNL1     -0.2836
     47 C         1.96595   4.4045   -2.025909 C.3        1 UNL1     -0.0566
     48 O         2.463234   1.623573   -1.637025 O.3        1 UNL1     -0.3909
     49 C         0.880732   -0.026081   0.58928 C.3        1 UNL1     -0.0577
     50 O         0.382728   3.28998   1.914219 O.3        1 UNL1     -0.3910
     51 O         -1.655085   2.88826   3.866342 O.3        1 UNL1     -0.3753
     52 C         -2.08137   0.284065   1.194166 C.3        1 UNL1     -0.0564
     53 O         -0.130896   -1.171986   3.382304 O.3        1 UNL1     -0.4608
     54 C         1.140708   -1.668092   3.26052 C.2        1 UNL1     0.3042
     55 O         1.678689   -2.102359   2.242764 O.2        1 UNL1     -0.2512
     56 C         1.938116   -1.597457   4.531687 C.3        1 UNL1     0.0332
     57 C         0.607222   2.165588   4.817182 C.3        1 UNL1     -0.0567
     58 C         -5.228439   3.210398   0.185247 C.3        1 UNL1     0.0210
     59 C         -2.112382   3.040725   5.209287 C.3        1 UNL1     0.0372
     60 C         -2.881102   2.879875   1.889058 C.2        1 UNL1     -0.0208
     61 C         -2.684403   4.172018   1.623689 C.2        1 UNL1     0.0882
     62 H         -0.047073   3.702631   -1.827322 H        1 UNL1     0.0365
     63 H         -0.912911   4.379097   -3.548643 H        1 UNL1     0.0576
     64 H         0.789625   3.650048   -6.011697 H        1 UNL1     0.0615
     65 H         -1.999347   5.018199   -5.683582 H        1 UNL1     0.0622
     66 H         -3.379689   1.83065   3.612623 H        1 UNL1     0.0645
     67 H         -2.559994   -0.069382   3.145523 H        1 UNL1     0.0362
     68 H         -0.867567   0.265901   4.501713 H        1 UNL1     0.0741
     69 H         1.616188   0.781396   3.732549 H        1 UNL1     0.0359
     70 H         2.149973   2.463258   2.359259 H        1 UNL1     0.0600
     71 H         2.5061   1.209978   0.625138 H        1 UNL1     0.0348
     72 H         1.156725   2.913292   -0.474842 H        1 UNL1     0.0602
     73 H         -3.524023   2.303216   1.271511 H        1 UNL1     0.0628
     74 H         -1.996681   4.816473   2.172281 H        1 UNL1     0.1022
     75 H         -0.490746   4.622753   -9.469821 H        1 UNL1     0.0279
     76 H         -1.391609   3.160155   -9.419308 H        1 UNL1     0.0279
     77 H         -2.148882   4.734137   -9.893036 H        1 UNL1     0.0279
     78 H         -3.739899   2.977285   -8.201101 H        1 UNL1     0.1553
     79 H         -2.524045   1.855159   -7.1108 H        1 UNL1     0.1484
     80 H         -2.719629   -0.439185   -4.088016 H        1 UNL1     0.0317
     81 H         -4.130899   0.35617   -4.770405 H        1 UNL1     0.0317
     82 H         -3.299913   -0.043058   -7.103597 H        1 UNL1     0.0428
     83 H         -3.465365   -1.521411   -6.182293 H        1 UNL1     0.0428
     84 H         0.461318   0.081567   -6.521058 H        1 UNL1     0.0428
     85 H         -0.794156   0.945081   -7.337912 H        1 UNL1     0.0428
     86 H         -0.065341   1.835077   -5.123959 H        1 UNL1     0.0317
     87 H         -0.501268   0.411118   -4.296517 H        1 UNL1     0.0317
     88 H         -1.790886   -1.536019   -8.376493 H        1 UNL1     0.0429
     89 H         -0.153289   -1.831208   -7.787106 H        1 UNL1     0.0429
     90 H         -2.685559   -3.410069   -7.416105 H        1 UNL1     0.0308
     91 H         0.306322   -4.062637   -7.530782 H        1 UNL1     0.0233
     92 H         -0.932801   -5.286457   -7.15351 H        1 UNL1     0.0233
     93 H         -0.92489   -4.490619   -8.712735 H        1 UNL1     0.0233
     94 H         -1.667936   -4.359892   -5.218093 H        1 UNL1     0.0233
     95 H         -0.893702   -2.771944   -5.102707 H        1 UNL1     0.0233
     96 H         -2.667233   -2.893108   -5.165154 H        1 UNL1     0.0233
     97 H         -7.821329   6.114547   -1.006038 H        1 UNL1     0.0280
     98 H         -7.038512   7.617979   -1.411106 H        1 UNL1     0.0280
     99 H         -8.275553   6.93777   -2.509638 H        1 UNL1     0.0280
     100 H         -7.089332   6.568089   -5.560302 H        1 UNL1     0.2922
     101 H         1.639408   5.035637   -1.199657 H        1 UNL1     0.0236
     102 H         2.309662   4.990855   -2.877398 H        1 UNL1     0.0236
     103 H         2.870461   3.897556   -1.65033 H        1 UNL1     0.0236
     104 H         2.895828   1.100386   -0.934097 H        1 UNL1     0.2098
     105 H         1.54836   -0.767253   0.157137 H        1 UNL1     0.0234
     106 H         0.5273   -0.359242   1.564993 H        1 UNL1     0.0234
     107 H         -0.0   0.0   0.0 H        1 UNL1     0.0234
     108 H         0.699649   3.732483   1.103343 H        1 UNL1     0.2098
     109 H         -3.148462   0.233013   0.936448 H        1 UNL1     0.0234
     110 H         -1.569659   0.962848   0.503407 H        1 UNL1     0.0234
     111 H         -1.669138   -0.704193   0.950532 H        1 UNL1     0.0234
     112 H         2.945856   -1.988211   4.361048 H        1 UNL1     0.0342
     113 H         1.974167   -0.587347   4.936929 H        1 UNL1     0.0342
     114 H         1.450325   -2.23862   5.278771 H        1 UNL1     0.0342
     115 H         1.5991   2.431914   5.207614 H        1 UNL1     0.0234
     116 H         0.036143   3.090304   4.713169 H        1 UNL1     0.0234
     117 H         0.188249   1.600379   5.667442 H        1 UNL1     0.0234
     118 H         -5.215824   2.999888   1.269006 H        1 UNL1     0.0309
     119 H         -6.264439   3.34557   -0.141303 H        1 UNL1     0.0309
     120 H         -4.890996   2.267639   -0.2591 H        1 UNL1     0.0309
     121 H         -1.736058   3.993973   5.579496 H        1 UNL1     0.0524
     122 H         -3.212731   3.069819   5.275798 H        1 UNL1     0.0524
     123 H         -1.743235   2.226729   5.826729 H        1 UNL1     0.0524
@<TRIPOS>BOND
     1     1     2    1
     2     1    42    1
     3     2     3    2
     4     3     4    1
     5     4     5    2
     6     5     7    1
     7     6    75    1
     8     6    76    1
     9     6    77    1
    10     7     9   am
    11     9    10    1
    12    10    11    2
    13    10    43    1
    14    11    14    1
    15    11    15    1
    16    12    13   ar
    17    12    27   ar
    18    12    43    1
    19    13    14    1
    20    13    30   ar
    21    14    17    2
    22    15    16    1
    23    16    17    1
    24    16    18    1
    25    16    22    1
    26    18    19    1
    27    19    20    1
    28    20    21    1
    29    21    22    1
    30    23    24    1
    31    23    88    1
    32    23    89    1
    33    24    25    1
    34    24    26    1
    35    24    90    1
    36    25    91    1
    37    25    92    1
    38    25    93    1
    39    26    94    1
    40    26    95    1
    41    26    96    1
    42    27    28   ar
    43    28    29   ar
    44    29    30   ar
    45    29    31    1
    46    30    33    1
    47    31    32    1
    48    32    33    1
    49    32    35    1
    50    34    97    1
    51    34    98    1
    52    34    99    1
    53    35    61    1
    54    36    37    1
    55    36    60    1
    56    37    38    1
    57    38    39    1
    58    39    40    1
    59    40    41    1
    60    41    42    1
    61    45   100    1
    62    47   101    1
    63    47   102    1
    64    47   103    1
    65    48   104    1
    66    49   105    1
    67    49   106    1
    68    49   107    1
    69    50   108    1
    70    51    59    1
    71    52   109    1
    72    52   110    1
    73    52   111    1
    74    53    54    1
    75    54    55    2
    76    54    56    1
    77    56   112    1
    78    56   113    1
    79    56   114    1
    80    57   115    1
    81    57   116    1
    82    57   117    1
    83    58   118    1
    84    58   119    1
    85    58   120    1
    86    59   121    1
    87    59   122    1
    88    59   123    1
    89    60    61    2
    90     1    47    1
    91     1    62    1
    92     2    63    1
    93     3    64    1
    94     4    65    1
    95     5     6    1
    96     7     8    2
    97     9    78    1
    98    15    79    1
    99    18    80    1
   100    18    81    1
   101    19    82    1
   102    19    83    1
   103    20    23    1
   104    21    84    1
   105    21    85    1
   106    22    86    1
   107    22    87    1
   108    27    45    1
   109    28    34    1
   110    32    58    1
   111    33    46    2
   112    36    51    1
   113    36    66    1
   114    37    52    1
   115    37    67    1
   116    38    53    1
   117    38    68    1
   118    42    48    1
   119    42    72    1
   120    43    44    2
   121    60    73    1
   122    61    74    1
   123    39    69    1
   124    39    57    1
   125    40    70    1
   126    40    50    1
   127    41    71    1
   128    41    49    1
