@<TRIPOS>MOLECULE
*****
 123 128 0 0 0
SMALL
GASTEIGER

@<TRIPOS>ATOM
     1 C         5.165982   1.759112   0.46629 C.3        1 UNL1     0.0009
     2 C         6.597161   2.567446   -0.391242 C.2        1 UNL1     -0.0787
     3 C         7.876139   2.471307   -1.062821 C.2        1 UNL1     -0.0649
     4 C         8.747691   3.707634   -1.823248 C.2        1 UNL1     -0.0542
     5 C         9.762801   4.001641   -2.766746 C.2        1 UNL1     0.0115
     6 C         10.888199   3.377818   -3.637175 C.3        1 UNL1     -0.0348
     7 C         9.852461   5.484683   -3.374641 C.2        1 UNL1     0.2441
     8 O         10.676486   6.308171   -3.001307 O.2        1 UNL1     -0.2702
     9 N         9.09644   5.689434   -4.541971 N.am        1 UNL1     -0.2772
     10 C         7.814441   6.073835   -4.222542 C.2        1 UNL1     0.1049
     11 C         6.971897   5.100978   -3.926078 C.2        1 UNL1     0.0801
     12 C         6.519466   7.678891   -2.806854 C.ar        1 UNL1     0.0753
     13 C         5.764672   6.549801   -2.355137 C.ar        1 UNL1     0.0305
     14 C         5.881152   5.243907   -3.000215 C.2        1 UNL1     0.0924
     15 N         7.096358   3.772136   -4.084876 N.pl3        1 UNL1     -0.3170
     16 C         5.829127   3.170714   -3.76445 C.3        1 UNL1     0.1275
     17 N         5.19541   4.125355   -2.782214 N.2        1 UNL1     -0.2557
     18 C         4.970338   3.227308   -5.024204 C.3        1 UNL1     0.0016
     19 C         5.721322   2.543942   -6.15585 C.3        1 UNL1     0.0026
     20 N         5.995915   1.166618   -5.770356 N.3        1 UNL1     -0.3018
     21 C         6.765298   1.008511   -4.534467 C.3        1 UNL1     0.0026
     22 C         5.990402   1.698255   -3.41033 C.3        1 UNL1     0.0016
     23 C         6.436879   0.347217   -6.881561 C.3        1 UNL1     0.0012
     24 C         5.277395   0.094864   -7.858122 C.3        1 UNL1     -0.0339
     25 C         5.345588   1.04063   -9.068466 C.3        1 UNL1     -0.0615
     26 C         5.265544   -1.362053   -8.287111 C.3        1 UNL1     -0.0615
     27 C         6.314844   8.946539   -2.267117 C.ar        1 UNL1     0.1347
     28 C         5.35971   9.214858   -1.302868 C.ar        1 UNL1     0.0342
     29 C         4.662484   8.079354   -0.838466 C.ar        1 UNL1     0.1435
     30 C         4.882074   6.797423   -1.344088 C.ar        1 UNL1     0.0774
     31 O         3.62523   8.191465   0.019754 O.3        1 UNL1     -0.4436
     32 C         2.905294   6.957158   -0.118271 C.3        1 UNL1     0.3143
     33 C         3.918044   5.965666   -0.654457 C.2        1 UNL1     0.2504
     34 C         4.912266   10.580384   -0.861016 C.3        1 UNL1     -0.0327
     35 O         2.551594   6.520626   1.199906 O.2        1 UNL1     -0.4528
     36 C         -0.6895   4.581906   0.819433 C.3        1 UNL1     0.0854
     37 C         -0.996509   3.320142   -0.075676 C.3        1 UNL1     0.0236
     38 C         -1.590968   2.058458   0.715852 C.3        1 UNL1     0.1131
     39 C         -0.858169   1.529789   2.01423 C.3        1 UNL1     0.0200
     40 C         0.803475   1.387486   2.047804 C.3        1 UNL1     0.0661
     41 C         1.758914   0.619741   0.875066 C.3        1 UNL1     0.0091
     42 C         3.463167   0.985229   0.302928 C.3        1 UNL1     0.0661
     43 C         7.464712   7.472286   -3.932059 C.2        1 UNL1     0.2131
     44 O         7.859524   8.370659   -4.65302 O.2        1 UNL1     -0.2851
     45 O         7.122973   9.982912   -2.730039 O.3        1 UNL1     -0.5056
     46 O         3.93697   4.762252   -0.522967 O.2        1 UNL1     -0.2836
     47 C         5.569829   1.331358   1.902924 C.3        1 UNL1     -0.0566
     48 O         3.914838   -0.424951   0.383562 O.3        1 UNL1     -0.3909
     49 C         0.919448   0.384713   -0.360876 C.3        1 UNL1     -0.0577
     50 O         1.403125   2.606768   2.437026 O.3        1 UNL1     -0.3910
     51 O         -0.806778   4.392919   2.21154 O.3        1 UNL1     -0.3753
     52 C         0.042907   3.160923   -1.232919 C.3        1 UNL1     -0.0564
     53 O         -2.195717   1.017711   -0.180501 O.3        1 UNL1     -0.4608
     54 C         -2.426021   -0.289265   0.16112 C.2        1 UNL1     0.3042
     55 O         -1.855998   -1.28748   -0.277604 O.2        1 UNL1     -0.2512
     56 C         -3.462254   -0.456323   1.235841 C.3        1 UNL1     0.0332
     57 C         -1.574643   2.19823   3.278361 C.3        1 UNL1     -0.0567
     58 C         1.824617   7.199444   -1.197606 C.3        1 UNL1     0.0210
     59 C         -1.118827   5.571811   2.952286 C.3        1 UNL1     0.0372
     60 C         0.637193   5.213403   0.582247 C.2        1 UNL1     -0.0208
     61 C         1.553301   5.650982   1.447125 C.2        1 UNL1     0.0882
     62 H         4.688567   2.742421   0.555111 H        1 UNL1     0.0365
     63 H         6.329365   3.620799   -0.285402 H        1 UNL1     0.0576
     64 H         8.334634   1.505195   -1.285347 H        1 UNL1     0.0615
     65 H         8.26045   4.62232   -1.474783 H        1 UNL1     0.0622
     66 H         -1.437023   5.326785   0.512171 H        1 UNL1     0.0645
     67 H         -1.865478   3.627424   -0.683155 H        1 UNL1     0.0362
     68 H         -2.537242   2.49374   1.071687 H        1 UNL1     0.0741
     69 H         -1.186826   0.518184   2.211838 H        1 UNL1     0.0359
     70 H         0.920611   0.727966   2.928924 H        1 UNL1     0.0600
     71 H         1.806451   -0.40105   1.30248 H        1 UNL1     0.0348
     72 H         3.360884   1.473888   1.282757 H        1 UNL1     0.0602
     73 H         0.7499   5.410181   -0.454972 H        1 UNL1     0.0628
     74 H         1.541123   5.441006   2.517172 H        1 UNL1     0.1022
     75 H         10.916821   2.269289   -3.505349 H        1 UNL1     0.0279
     76 H         10.782804   3.482953   -4.714629 H        1 UNL1     0.0279
     77 H         11.8951   3.662505   -3.298347 H        1 UNL1     0.0279
     78 H         9.033689   4.819013   -5.065905 H        1 UNL1     0.1553
     79 H         7.759585   3.345014   -4.705061 H        1 UNL1     0.1484
     80 H         4.010918   2.734651   -4.825285 H        1 UNL1     0.0317
     81 H         4.740471   4.263439   -5.294845 H        1 UNL1     0.0317
     82 H         6.649796   3.076872   -6.408505 H        1 UNL1     0.0428
     83 H         5.091936   2.597275   -7.044713 H        1 UNL1     0.0428
     84 H         6.889067   -0.033997   -4.225163 H        1 UNL1     0.0428
     85 H         7.794185   1.378462   -4.643309 H        1 UNL1     0.0428
     86 H         6.511515   1.449504   -2.504486 H        1 UNL1     0.0317
     87 H         5.012474   1.218813   -3.280378 H        1 UNL1     0.0317
     88 H         7.229439   0.890193   -7.4129 H        1 UNL1     0.0429
     89 H         6.872925   -0.59748   -6.532013 H        1 UNL1     0.0429
     90 H         4.326786   0.26163   -7.33779 H        1 UNL1     0.0308
     91 H         6.298359   0.94186   -9.597215 H        1 UNL1     0.0233
     92 H         4.527148   0.838374   -9.763345 H        1 UNL1     0.0233
     93 H         5.249139   2.094583   -8.780863 H        1 UNL1     0.0233
     94 H         4.57923   -1.502256   -9.129223 H        1 UNL1     0.0233
     95 H         6.264945   -1.663768   -8.612883 H        1 UNL1     0.0233
     96 H         4.948172   -2.016044   -7.47008 H        1 UNL1     0.0233
     97 H         4.11614   10.529693   -0.124236 H        1 UNL1     0.0280
     98 H         5.723702   11.148833   -0.388053 H        1 UNL1     0.0280
     99 H         4.54226   11.146996   -1.731155 H        1 UNL1     0.0280
     100 H         6.653208   10.737081   -3.040155 H        1 UNL1     0.2922
     101 H         4.707064   0.907809   2.416636 H        1 UNL1     0.0236
     102 H         6.032813   2.134605   2.475132 H        1 UNL1     0.0236
     103 H         6.318456   0.521584   1.898879 H        1 UNL1     0.0236
     104 H         4.333296   -0.551117   1.257601 H        1 UNL1     0.2098
     105 H         0.702403   1.28274   -0.933807 H        1 UNL1     0.0234
     106 H         1.287313   -0.403041   -1.018177 H        1 UNL1     0.0234
     107 H         0.0   -0.0   0.0 H        1 UNL1     0.0234
     108 H         1.215079   3.25952   1.73537 H        1 UNL1     0.2098
     109 H         1.071136   3.062082   -0.857835 H        1 UNL1     0.0234
     110 H         -0.18437   2.325316   -1.903627 H        1 UNL1     0.0234
     111 H         0.050549   4.038078   -1.89359 H        1 UNL1     0.0234
     112 H         -3.582431   -1.517259   1.47525 H        1 UNL1     0.0342
     113 H         -3.223841   0.120941   2.1279 H        1 UNL1     0.0342
     114 H         -4.421764   -0.087914   0.847537 H        1 UNL1     0.0342
     115 H         -2.646178   1.958073   3.314761 H        1 UNL1     0.0234
     116 H         -1.140855   1.910454   4.238081 H        1 UNL1     0.0234
     117 H         -1.604676   3.300574   3.235044 H        1 UNL1     0.0234
     118 H         0.923905   7.683478   -0.781149 H        1 UNL1     0.0309
     119 H         2.188489   7.78886   -2.045184 H        1 UNL1     0.0309
     120 H         1.436985   6.266482   -1.621197 H        1 UNL1     0.0309
     121 H         -0.282627   6.261665   2.841704 H        1 UNL1     0.0524
     122 H         -2.020488   6.079234   2.570755 H        1 UNL1     0.0524
     123 H         -1.268015   5.328603   4.000468 H        1 UNL1     0.0524
@<TRIPOS>BOND
     1     1     2    1
     2     1    42    1
     3     2     3    2
     4     3     4    1
     5     4     5    2
     6     5     7    1
     7     6    75    1
     8     6    76    1
     9     6    77    1
    10     7     9   am
    11     9    10    1
    12    10    11    2
    13    10    43    1
    14    11    14    1
    15    11    15    1
    16    12    13   ar
    17    12    27   ar
    18    12    43    1
    19    13    14    1
    20    13    30   ar
    21    14    17    2
    22    15    16    1
    23    16    17    1
    24    16    18    1
    25    16    22    1
    26    18    19    1
    27    19    20    1
    28    20    21    1
    29    21    22    1
    30    23    24    1
    31    23    88    1
    32    23    89    1
    33    24    25    1
    34    24    26    1
    35    24    90    1
    36    25    91    1
    37    25    92    1
    38    25    93    1
    39    26    94    1
    40    26    95    1
    41    26    96    1
    42    27    28   ar
    43    28    29   ar
    44    29    30   ar
    45    29    31    1
    46    30    33    1
    47    31    32    1
    48    32    33    1
    49    32    35    1
    50    34    97    1
    51    34    98    1
    52    34    99    1
    53    35    61    1
    54    36    37    1
    55    36    60    1
    56    37    38    1
    57    38    39    1
    58    39    40    1
    59    40    41    1
    60    41    42    1
    61    45   100    1
    62    47   101    1
    63    47   102    1
    64    47   103    1
    65    48   104    1
    66    49   105    1
    67    49   106    1
    68    49   107    1
    69    50   108    1
    70    51    59    1
    71    52   109    1
    72    52   110    1
    73    52   111    1
    74    53    54    1
    75    54    55    2
    76    54    56    1
    77    56   112    1
    78    56   113    1
    79    56   114    1
    80    57   115    1
    81    57   116    1
    82    57   117    1
    83    58   118    1
    84    58   119    1
    85    58   120    1
    86    59   121    1
    87    59   122    1
    88    59   123    1
    89    60    61    2
    90     1    47    1
    91     1    62    1
    92     2    63    1
    93     3    64    1
    94     4    65    1
    95     5     6    1
    96     7     8    2
    97     9    78    1
    98    15    79    1
    99    18    80    1
   100    18    81    1
   101    19    82    1
   102    19    83    1
   103    20    23    1
   104    21    84    1
   105    21    85    1
   106    22    86    1
   107    22    87    1
   108    27    45    1
   109    28    34    1
   110    32    58    1
   111    33    46    2
   112    36    51    1
   113    36    66    1
   114    37    52    1
   115    37    67    1
   116    38    53    1
   117    38    68    1
   118    42    48    1
   119    42    72    1
   120    43    44    2
   121    60    73    1
   122    61    74    1
   123    39    69    1
   124    39    57    1
   125    40    70    1
   126    40    50    1
   127    41    71    1
   128    41    49    1
