@<TRIPOS>MOLECULE
*****
 123 128 0 0 0
SMALL
GASTEIGER

@<TRIPOS>ATOM
     1 C         -4.466053   2.305375   0.856835 C.3        1 UNL1     0.0009
     2 C         -5.525798   3.016446   2.201586 C.2        1 UNL1     -0.0787
     3 C         -6.492882   2.839958   3.264435 C.2        1 UNL1     -0.0649
     4 C         -7.067556   4.003155   4.35213 C.2        1 UNL1     -0.0542
     5 C         -7.699223   4.211257   5.603037 C.2        1 UNL1     0.0115
     6 C         -8.445411   3.503241   6.767184 C.3        1 UNL1     -0.0348
     7 C         -7.596559   5.656465   6.294284 C.2        1 UNL1     0.2441
     8 O         -8.511419   6.46843   6.277886 O.2        1 UNL1     -0.2702
     9 N         -6.487469   5.826881   7.14106 N.am        1 UNL1     -0.2772
     10 C         -5.400508   6.27281   6.424831 C.2        1 UNL1     0.1049
     11 C         -4.697053   5.347342   5.798026 C.2        1 UNL1     0.0801
     12 C         -4.698475   7.994559   4.751492 C.ar        1 UNL1     0.0753
     13 C         -4.12852   6.918138   3.999775 C.ar        1 UNL1     0.0305
     14 C         -3.995076   5.577079   4.564403 C.2        1 UNL1     0.0924
     15 N         -4.738521   4.008442   5.908276 N.pl3        1 UNL1     -0.3170
     16 C         -3.650522   3.47004   5.135855 C.3        1 UNL1     0.1275
     17 N         -3.409451   4.496535   4.056079 N.2        1 UNL1     -0.2557
     18 C         -2.410809   3.491437   6.024875 C.3        1 UNL1     0.0016
     19 C         -2.714576   2.723712   7.301556 C.3        1 UNL1     0.0026
     20 N         -3.083981   1.359451   6.950331 N.3        1 UNL1     -0.3018
     21 C         -4.229986   1.238683   6.046751 C.3        1 UNL1     0.0026
     22 C         -3.901287   2.013232   4.769282 C.3        1 UNL1     0.0016
     23 C         -3.101753   0.468066   8.09303 C.3        1 UNL1     0.0012
     24 C         -2.978822   1.266095   9.400621 C.3        1 UNL1     -0.0339
     25 C         -3.856053   2.528549   9.37355 C.3        1 UNL1     -0.0615
     26 C         -3.313838   0.377922   10.58624 C.3        1 UNL1     -0.0615
     27 C         -4.712263   9.295096   4.252963 C.ar        1 UNL1     0.1347
     28 C         -4.152736   9.647145   3.037627 C.ar        1 UNL1     0.0342
     29 C         -3.641085   8.562935   2.293406 C.ar        1 UNL1     0.1435
     30 C         -3.652892   7.249388   2.764232 C.ar        1 UNL1     0.0774
     31 O         -2.965493   8.756484   1.139664 O.3        1 UNL1     -0.4436
     32 C         -2.223151   7.543077   0.946158 C.3        1 UNL1     0.3143
     33 C         -2.973259   6.489558   1.735873 C.2        1 UNL1     0.2504
     34 C         -3.906385   11.048909   2.553406 C.3        1 UNL1     -0.0327
     35 O         -2.339265   7.188714   -0.437387 O.2        1 UNL1     -0.4528
     36 C         0.863642   5.349425   -1.31288 C.3        1 UNL1     0.0854
     37 C         1.4801   4.054454   -0.656716 C.3        1 UNL1     0.0236
     38 C         1.784393   2.857707   -1.67992 C.3        1 UNL1     0.1131
     39 C         0.656891   2.371675   -2.677307 C.3        1 UNL1     0.0200
     40 C         -0.911892   2.172244   -2.14666 C.3        1 UNL1     0.0661
     41 C         -1.392051   1.310888   -0.766398 C.3        1 UNL1     0.0091
     42 C         -2.799688   1.585148   0.377605 C.3        1 UNL1     0.0661
     43 C         -5.194143   7.696064   6.118047 C.2        1 UNL1     0.2131
     44 O         -5.329805   8.541012   6.984301 O.2        1 UNL1     -0.2851
     45 O         -5.326971   10.276502   5.027828 O.3        1 UNL1     -0.5056
     46 O         -3.017782   5.294723   1.545502 O.2        1 UNL1     -0.2836
     47 C         -5.334105   1.938976   -0.376947 C.3        1 UNL1     -0.0566
     48 O         -3.229583   0.165901   0.3709 O.3        1 UNL1     -0.3909
     49 C         -0.174179   1.041798   0.089098 C.3        1 UNL1     -0.0577
     50 O         -1.627785   3.388032   -2.230803 O.3        1 UNL1     -0.3910
     51 O         0.496319   5.23755   -2.669342 O.3        1 UNL1     -0.3753
     52 C         0.906376   3.798228   0.775114 C.3        1 UNL1     -0.0564
     53 O         2.677283   1.793848   -1.111345 O.3        1 UNL1     -0.4608
     54 C         2.378483   0.994424   -0.039165 C.2        1 UNL1     0.3042
     55 O         2.715423   1.159737   1.132578 O.2        1 UNL1     -0.2512
     56 C         1.491979   -0.168173   -0.384404 C.3        1 UNL1     0.0332
     57 C         0.882791   3.13018   -4.067204 C.3        1 UNL1     -0.0567
     58 C         -0.840323   7.7671   1.601238 C.3        1 UNL1     0.0210
     59 C         -0.569179   6.095689   -3.074529 C.3        1 UNL1     0.0372
     60 C         -0.309345   5.920065   -0.5962 C.2        1 UNL1     -0.0208
     61 C         -1.47425   6.369233   -1.06523 C.2        1 UNL1     0.0882
     62 H         -4.063862   3.308351   0.669768 H        1 UNL1     0.0365
     63 H         -5.327284   4.08275   2.074867 H        1 UNL1     0.0576
     64 H         -6.831452   1.84785   3.571356 H        1 UNL1     0.0615
     65 H         -6.744666   4.951527   3.914163 H        1 UNL1     0.0622
     66 H         1.659664   6.103419   -1.236139 H        1 UNL1     0.0645
     67 H         2.500441   4.360399   -0.367128 H        1 UNL1     0.0362
     68 H         2.542939   3.344359   -2.311821 H        1 UNL1     0.0741
     69 H         0.912786   1.384088   -3.037306 H        1 UNL1     0.0359
     70 H         -1.315629   1.555794   -2.97252 H        1 UNL1     0.0600
     71 H         -1.568347   0.312717   -1.213087 H        1 UNL1     0.0348
     72 H         -3.049315   2.127545   -0.545871 H        1 UNL1     0.0602
     73 H         -0.060297   6.058377   0.426587 H        1 UNL1     0.0628
     74 H         -1.828764   6.215882   -2.085054 H        1 UNL1     0.1022
     75 H         -8.00432   3.79527   7.750643 H        1 UNL1     0.0279
     76 H         -9.49503   3.757527   6.896442 H        1 UNL1     0.0279
     77 H         -8.287926   2.414729   6.773605 H        1 UNL1     0.0279
     78 H         -6.234354   4.933122   7.557238 H        1 UNL1     0.1553
     79 H         -5.140357   3.526233   6.691178 H        1 UNL1     0.1484
     80 H         -1.571439   3.044289   5.478721 H        1 UNL1     0.0317
     81 H         -2.117729   4.519579   6.262949 H        1 UNL1     0.0317
     82 H         -3.506987   3.209353   7.889901 H        1 UNL1     0.0428
     83 H         -1.818065   2.753018   7.921603 H        1 UNL1     0.0428
     84 H         -4.436738   0.209968   5.735605 H        1 UNL1     0.0428
     85 H         -5.163729   1.56559   6.524842 H        1 UNL1     0.0428
     86 H         -4.699023   1.793637   4.084167 H        1 UNL1     0.0317
     87 H         -3.020956   1.576337   4.282212 H        1 UNL1     0.0317
     88 H         -4.062494   -0.063212   8.096842 H        1 UNL1     0.0429
     89 H         -2.313951   -0.292509   8.017754 H        1 UNL1     0.0429
     90 H         -1.934372   1.569548   9.539377 H        1 UNL1     0.0308
     91 H         -4.03743   2.908566   10.383398 H        1 UNL1     0.0233
     92 H         -3.386698   3.312305   8.774349 H        1 UNL1     0.0233
     93 H         -4.838307   2.344954   8.921549 H        1 UNL1     0.0233
     94 H         -4.311832   0.618492   10.9683 H        1 UNL1     0.0233
     95 H         -3.314599   -0.671493   10.278523 H        1 UNL1     0.0233
     96 H         -2.592599   0.507201   11.398071 H        1 UNL1     0.0233
     97 H         -4.068572   11.144974   1.483968 H        1 UNL1     0.0280
     98 H         -4.581092   11.774588   3.026076 H        1 UNL1     0.0280
     99 H         -2.86524   11.337343   2.772306 H        1 UNL1     0.0280
     100 H         -6.193793   10.511423   4.746661 H        1 UNL1     0.2922
     101 H         -5.818378   2.834871   -0.764898 H        1 UNL1     0.0236
     102 H         -6.049135   1.141777   -0.176473 H        1 UNL1     0.0236
     103 H         -4.724126   1.564889   -1.2161 H        1 UNL1     0.0236
     104 H         -3.573398   -0.042355   1.261625 H        1 UNL1     0.2098
     105 H         0.725595   1.558504   -0.235298 H        1 UNL1     0.0234
     106 H         -0.327938   1.186088   1.158428 H        1 UNL1     0.0234
     107 H         0.0   0.0   0.0 H        1 UNL1     0.0234
     108 H         -1.517191   3.727494   -3.139815 H        1 UNL1     0.2098
     109 H         -0.171572   4.003763   0.834236 H        1 UNL1     0.0234
     110 H         1.107372   2.786913   1.144691 H        1 UNL1     0.0234
     111 H         1.375154   4.452669   1.522042 H        1 UNL1     0.0234
     112 H         0.524891   -0.060234   0.116032 H        1 UNL1     0.0342
     113 H         1.364862   -0.281017   -1.46002 H        1 UNL1     0.0342
     114 H         1.965886   -1.084866   -0.007241 H        1 UNL1     0.0342
     115 H         -0.034886   3.158761   -4.670728 H        1 UNL1     0.0234
     116 H         1.237382   4.157221   -3.959955 H        1 UNL1     0.0234
     117 H         1.570465   2.60201   -4.749906 H        1 UNL1     0.0234
     118 H         -0.92286   7.979661   2.681522 H        1 UNL1     0.0309
     119 H         -0.153571   6.927727   1.452827 H        1 UNL1     0.0309
     120 H         -0.327371   8.651714   1.208244 H        1 UNL1     0.0309
     121 H         -0.916032   5.753073   -4.049036 H        1 UNL1     0.0524
     122 H         -1.427007   6.05276   -2.382918 H        1 UNL1     0.0524
     123 H         -0.220493   7.122413   -3.140487 H        1 UNL1     0.0524
@<TRIPOS>BOND
     1     1     2    1
     2     1    42    1
     3     2     3    2
     4     3     4    1
     5     4     5    2
     6     5     7    1
     7     6    75    1
     8     6    76    1
     9     6    77    1
    10     7     9   am
    11     9    10    1
    12    10    11    2
    13    10    43    1
    14    11    14    1
    15    11    15    1
    16    12    13   ar
    17    12    27   ar
    18    12    43    1
    19    13    14    1
    20    13    30   ar
    21    14    17    2
    22    15    16    1
    23    16    17    1
    24    16    18    1
    25    16    22    1
    26    18    19    1
    27    19    20    1
    28    20    21    1
    29    21    22    1
    30    23    24    1
    31    23    88    1
    32    23    89    1
    33    24    25    1
    34    24    26    1
    35    24    90    1
    36    25    91    1
    37    25    92    1
    38    25    93    1
    39    26    94    1
    40    26    95    1
    41    26    96    1
    42    27    28   ar
    43    28    29   ar
    44    29    30   ar
    45    29    31    1
    46    30    33    1
    47    31    32    1
    48    32    33    1
    49    32    35    1
    50    34    97    1
    51    34    98    1
    52    34    99    1
    53    35    61    1
    54    36    37    1
    55    36    60    1
    56    37    38    1
    57    38    39    1
    58    39    40    1
    59    40    41    1
    60    41    42    1
    61    45   100    1
    62    47   101    1
    63    47   102    1
    64    47   103    1
    65    48   104    1
    66    49   105    1
    67    49   106    1
    68    49   107    1
    69    50   108    1
    70    51    59    1
    71    52   109    1
    72    52   110    1
    73    52   111    1
    74    53    54    1
    75    54    55    2
    76    54    56    1
    77    56   112    1
    78    56   113    1
    79    56   114    1
    80    57   115    1
    81    57   116    1
    82    57   117    1
    83    58   118    1
    84    58   119    1
    85    58   120    1
    86    59   121    1
    87    59   122    1
    88    59   123    1
    89    60    61    2
    90     1    47    1
    91     1    62    1
    92     2    63    1
    93     3    64    1
    94     4    65    1
    95     5     6    1
    96     7     8    2
    97     9    78    1
    98    15    79    1
    99    18    80    1
   100    18    81    1
   101    19    82    1
   102    19    83    1
   103    20    23    1
   104    21    84    1
   105    21    85    1
   106    22    86    1
   107    22    87    1
   108    27    45    1
   109    28    34    1
   110    32    58    1
   111    33    46    2
   112    36    51    1
   113    36    66    1
   114    37    52    1
   115    37    67    1
   116    38    53    1
   117    38    68    1
   118    42    48    1
   119    42    72    1
   120    43    44    2
   121    60    73    1
   122    61    74    1
   123    39    69    1
   124    39    57    1
   125    40    70    1
   126    40    50    1
   127    41    71    1
   128    41    49    1
