@<TRIPOS>MOLECULE
*****
 123 128 0 0 0
SMALL
GASTEIGER

@<TRIPOS>ATOM
     1 C         4.944716   2.352722   -0.117293 C.3        1 UNL1     0.0009
     2 C         6.140214   3.367789   -1.105958 C.2        1 UNL1     -0.0787
     3 C         7.315538   3.45904   -1.946395 C.2        1 UNL1     -0.0649
     4 C         7.925122   4.825798   -2.738062 C.2        1 UNL1     -0.0542
     5 C         8.758302   5.284109   -3.788225 C.2        1 UNL1     0.0115
     6 C         9.815271   4.842512   -4.837572 C.3        1 UNL1     -0.0348
     7 C         8.59185   6.793194   -4.309708 C.2        1 UNL1     0.2441
     8 O         9.360097   7.69311   -3.999107 O.2        1 UNL1     -0.2702
     9 N         7.661984   6.957277   -5.351139 N.am        1 UNL1     -0.2772
     10 C         6.401559   7.167531   -4.840802 C.2        1 UNL1     0.1049
     11 C         5.725622   6.086703   -4.495634 C.2        1 UNL1     0.0801
     12 C         5.141461   8.536462   -3.168822 C.ar        1 UNL1     0.0753
     13 C         4.59138   7.304346   -2.691423 C.ar        1 UNL1     0.0305
     14 C         4.765546   6.053194   -3.425817 C.2        1 UNL1     0.0924
     15 N         5.978087   4.791587   -4.751493 N.pl3        1 UNL1     -0.3170
     16 C         4.845236   4.026162   -4.303132 C.3        1 UNL1     0.1275
     17 N         4.249579   4.850607   -3.188141 N.2        1 UNL1     -0.2557
     18 C         3.818368   4.035036   -5.431478 C.3        1 UNL1     0.0016
     19 C         4.477459   3.500669   -6.693081 C.3        1 UNL1     0.0026
     20 N         4.959057   2.150959   -6.433516 N.3        1 UNL1     -0.3018
     21 C         5.906285   2.031624   -5.323161 C.3        1 UNL1     0.0026
     22 C         5.221898   2.569741   -4.06541 C.3        1 UNL1     0.0016
     23 C         5.331649   1.442985   -7.642065 C.3        1 UNL1     0.0012
     24 C         4.083906   1.09596   -8.46939 C.3        1 UNL1     -0.0339
     25 C         3.824444   2.145291   -9.562843 C.3        1 UNL1     -0.0615
     26 C         4.218291   -0.299289   -9.054198 C.3        1 UNL1     -0.0615
     27 C         4.870289   9.743753   -2.529267 C.ar        1 UNL1     0.1347
     28 C         4.03459   9.84935   -1.431766 C.ar        1 UNL1     0.0342
     29 C         3.543635   8.617316   -0.949877 C.ar        1 UNL1     0.1435
     30 C         3.835924   7.396132   -1.558561 C.ar        1 UNL1     0.0774
     31 O         2.630267   8.562858   0.044005 O.3        1 UNL1     -0.4436
     32 C         2.044271   7.257574   -0.073102 C.3        1 UNL1     0.3143
     33 C         3.079169   6.422456   -0.799586 C.2        1 UNL1     0.2504
     34 C         3.49972   11.128546   -0.850672 C.3        1 UNL1     -0.0327
     35 O         1.930222   6.7215   1.250858 O.2        1 UNL1     -0.4528
     36 C         -1.088672   4.421471   1.185804 C.3        1 UNL1     0.0854
     37 C         -1.370967   3.173845   0.263165 C.3        1 UNL1     0.0236
     38 C         -1.700766   1.814312   1.047158 C.3        1 UNL1     0.1131
     39 C         -0.738365   1.320257   2.201266 C.3        1 UNL1     0.0200
     40 C         0.916976   1.380225   2.004576 C.3        1 UNL1     0.0661
     41 C         1.781098   0.789001   0.669901 C.3        1 UNL1     0.0091
     42 C         3.335711   1.385265   -0.100195 C.3        1 UNL1     0.0661
     43 C         5.937918   8.49819   -4.420402 C.2        1 UNL1     0.2131
     44 O         6.122802   9.469945   -5.130507 O.2        1 UNL1     -0.2851
     45 O         5.481886   10.890954   -3.030582 O.3        1 UNL1     -0.5056
     46 O         3.253954   5.225591   -0.746497 O.2        1 UNL1     -0.2836
     47 C         5.59129   1.91231   1.223587 C.3        1 UNL1     -0.0566
     48 O         3.952724   0.038475   -0.167786 O.3        1 UNL1     -0.3909
     49 C         0.809957   0.510003   -0.455506 C.3        1 UNL1     -0.0577
     50 O         1.421417   2.644488   2.385237 O.3        1 UNL1     -0.3910
     51 O         -0.988222   4.156288   2.566753 O.3        1 UNL1     -0.3753
     52 C         -0.491782   3.1955   -1.029705 C.3        1 UNL1     -0.0564
     53 O         -2.3014   0.749578   0.17658 O.3        1 UNL1     -0.4608
     54 C         -2.318942   -0.591455   0.4581 C.2        1 UNL1     0.3042
     55 O         -1.705403   -1.484935   -0.124224 O.2        1 UNL1     -0.2512
     56 C         -3.154362   -0.943626   1.655916 C.3        1 UNL1     0.0332
     57 C         -1.343325   1.837989   3.588404 C.3        1 UNL1     -0.0567
     58 C         0.803054   7.415276   -0.981969 C.3        1 UNL1     0.0210
     59 C         -1.357023   5.243326   3.414219 C.3        1 UNL1     0.0372
     60 C         0.11083   5.220168   0.81373 C.2        1 UNL1     -0.0208
     61 C         1.082403   5.726264   1.574425 C.2        1 UNL1     0.0882
     62 H         4.374906   3.265404   0.094931 H        1 UNL1     0.0365
     63 H         5.770934   4.3747   -0.900457 H        1 UNL1     0.0576
     64 H         7.846121   2.567202   -2.287295 H        1 UNL1     0.0615
     65 H         7.38972   5.657399   -2.271942 H        1 UNL1     0.0622
     66 H         -1.952088   5.082889   1.02742 H        1 UNL1     0.0645
     67 H         -2.345587   3.400277   -0.203102 H        1 UNL1     0.0362
     68 H         -2.631728   2.114285   1.551983 H        1 UNL1     0.0741
     69 H         -0.918203   0.268175   2.377873 H        1 UNL1     0.0359
     70 H         1.230616   0.700404   2.819765 H        1 UNL1     0.0600
     71 H         2.00438   -0.236807   1.023203 H        1 UNL1     0.0348
     72 H         3.315797   1.812598   0.912872 H        1 UNL1     0.0602
     73 H         0.054488   5.476329   -0.215082 H        1 UNL1     0.0628
     74 H         1.243714   5.467777   2.621517 H        1 UNL1     0.1022
     75 H         10.009806   3.745594   -4.760362 H        1 UNL1     0.0279
     76 H         9.538696   4.958353   -5.883113 H        1 UNL1     0.0279
     77 H         10.814469   5.254741   -4.634172 H        1 UNL1     0.0279
     78 H         7.626882   6.110512   -5.914907 H        1 UNL1     0.1553
     79 H         6.592846   4.477253   -5.47964 H        1 UNL1     0.1484
     80 H         2.958871   3.420521   -5.137536 H        1 UNL1     0.0317
     81 H         3.435858   5.046669   -5.604495 H        1 UNL1     0.0317
     82 H         5.294412   4.153792   -7.033568 H        1 UNL1     0.0428
     83 H         3.728329   3.517359   -7.485277 H        1 UNL1     0.0428
     84 H         6.190562   0.998967   -5.098177 H        1 UNL1     0.0428
     85 H         6.860726   2.528836   -5.544837 H        1 UNL1     0.0428
     86 H         5.889282   2.345319   -3.254101 H        1 UNL1     0.0317
     87 H         4.333062   1.969219   -3.836408 H        1 UNL1     0.0317
     88 H         5.974901   2.102209   -8.239514 H        1 UNL1     0.0429
     89 H         5.917486   0.543544   -7.412772 H        1 UNL1     0.0429
     90 H         3.211658   1.059934   -7.80599 H        1 UNL1     0.0308
     91 H         4.68404   2.242576   -10.232717 H        1 UNL1     0.0233
     92 H         2.940921   1.881974   -10.149069 H        1 UNL1     0.0233
     93 H         3.630209   3.141703   -9.147786 H        1 UNL1     0.0233
     94 H         3.428869   -0.477027   -9.792479 H        1 UNL1     0.0233
     95 H         5.182345   -0.400998   -9.560378 H        1 UNL1     0.0233
     96 H         4.144517   -1.06612   -8.277991 H        1 UNL1     0.0233
     97 H         2.832409   10.947957   -0.013227 H        1 UNL1     0.0280
     98 H         4.299464   11.773638   -0.463991 H        1 UNL1     0.0280
     99 H         2.941494   11.680409   -1.624575 H        1 UNL1     0.0280
     100 H         4.888962   11.591171   -3.239772 H        1 UNL1     0.2922
     101 H         4.866653   1.353004   1.81497 H        1 UNL1     0.0236
     102 H         6.023769   2.740862   1.783451 H        1 UNL1     0.0236
     103 H         6.427833   1.210497   1.069159 H        1 UNL1     0.0236
     104 H         4.505431   -0.073137   0.630355 H        1 UNL1     0.2098
     105 H         0.413716   1.400062   -0.937792 H        1 UNL1     0.0234
     106 H         1.170333   -0.196212   -1.203381 H        1 UNL1     0.0234
     107 H         0.0   -0.0   0.0 H        1 UNL1     0.0234
     108 H         1.049753   3.303149   1.767338 H        1 UNL1     0.2098
     109 H         0.583277   3.193274   -0.801767 H        1 UNL1     0.0234
     110 H         -0.721625   2.376924   -1.720247 H        1 UNL1     0.0234
     111 H         -0.667805   4.102214   -1.623702 H        1 UNL1     0.0234
     112 H         -3.118969   -2.02336   1.829887 H        1 UNL1     0.0342
     113 H         -2.847778   -0.394396   2.544847 H        1 UNL1     0.0342
     114 H         -4.19655   -0.671379   1.439376 H        1 UNL1     0.0342
     115 H         -2.350322   1.437588   3.769581 H        1 UNL1     0.0234
     116 H         -0.731136   1.593163   4.458653 H        1 UNL1     0.0234
     117 H         -1.539648   2.923867   3.604732 H        1 UNL1     0.0234
     118 H         -0.079818   7.767864   -0.42052 H        1 UNL1     0.0309
     119 H         0.9757   8.081502   -1.833168 H        1 UNL1     0.0309
     120 H         0.468638   6.462094   -1.405897 H        1 UNL1     0.0309
     121 H         -0.670477   6.065383   3.213632 H        1 UNL1     0.0524
     122 H         -2.378039   5.60596   3.20913 H        1 UNL1     0.0524
     123 H         -1.291277   4.946011   4.456992 H        1 UNL1     0.0524
@<TRIPOS>BOND
     1     1     2    1
     2     1    42    1
     3     2     3    2
     4     3     4    1
     5     4     5    2
     6     5     7    1
     7     6    75    1
     8     6    76    1
     9     6    77    1
    10     7     9   am
    11     9    10    1
    12    10    11    2
    13    10    43    1
    14    11    14    1
    15    11    15    1
    16    12    13   ar
    17    12    27   ar
    18    12    43    1
    19    13    14    1
    20    13    30   ar
    21    14    17    2
    22    15    16    1
    23    16    17    1
    24    16    18    1
    25    16    22    1
    26    18    19    1
    27    19    20    1
    28    20    21    1
    29    21    22    1
    30    23    24    1
    31    23    88    1
    32    23    89    1
    33    24    25    1
    34    24    26    1
    35    24    90    1
    36    25    91    1
    37    25    92    1
    38    25    93    1
    39    26    94    1
    40    26    95    1
    41    26    96    1
    42    27    28   ar
    43    28    29   ar
    44    29    30   ar
    45    29    31    1
    46    30    33    1
    47    31    32    1
    48    32    33    1
    49    32    35    1
    50    34    97    1
    51    34    98    1
    52    34    99    1
    53    35    61    1
    54    36    37    1
    55    36    60    1
    56    37    38    1
    57    38    39    1
    58    39    40    1
    59    40    41    1
    60    41    42    1
    61    45   100    1
    62    47   101    1
    63    47   102    1
    64    47   103    1
    65    48   104    1
    66    49   105    1
    67    49   106    1
    68    49   107    1
    69    50   108    1
    70    51    59    1
    71    52   109    1
    72    52   110    1
    73    52   111    1
    74    53    54    1
    75    54    55    2
    76    54    56    1
    77    56   112    1
    78    56   113    1
    79    56   114    1
    80    57   115    1
    81    57   116    1
    82    57   117    1
    83    58   118    1
    84    58   119    1
    85    58   120    1
    86    59   121    1
    87    59   122    1
    88    59   123    1
    89    60    61    2
    90     1    47    1
    91     1    62    1
    92     2    63    1
    93     3    64    1
    94     4    65    1
    95     5     6    1
    96     7     8    2
    97     9    78    1
    98    15    79    1
    99    18    80    1
   100    18    81    1
   101    19    82    1
   102    19    83    1
   103    20    23    1
   104    21    84    1
   105    21    85    1
   106    22    86    1
   107    22    87    1
   108    27    45    1
   109    28    34    1
   110    32    58    1
   111    33    46    2
   112    36    51    1
   113    36    66    1
   114    37    52    1
   115    37    67    1
   116    38    53    1
   117    38    68    1
   118    42    48    1
   119    42    72    1
   120    43    44    2
   121    60    73    1
   122    61    74    1
   123    39    69    1
   124    39    57    1
   125    40    70    1
   126    40    50    1
   127    41    71    1
   128    41    49    1
