@<TRIPOS>MOLECULE
*****
 123 128 0 0 0
SMALL
GASTEIGER

@<TRIPOS>ATOM
     1 C         5.141523   0.544167   1.807731 C.3        1 UNL1     0.0009
     2 C         6.898468   0.921934   1.352239 C.2        1 UNL1     -0.0787
     3 C         8.242399   0.474526   1.052702 C.2        1 UNL1     -0.0649
     4 C         9.556988   1.40524   0.53118 C.2        1 UNL1     -0.0542
     5 C         10.820376   1.373993   -0.109096 C.2        1 UNL1     0.0115
     6 C         11.941734   0.434049   -0.630999 C.3        1 UNL1     -0.0348
     7 C         11.425972   2.738357   -0.699649 C.2        1 UNL1     0.2441
     8 O         12.303194   3.376625   -0.134298 O.2        1 UNL1     -0.2702
     9 N         11.06975   3.012973   -2.031506 N.am        1 UNL1     -0.2772
     10 C         9.88451   3.710405   -2.077541 C.2        1 UNL1     0.1049
     11 C         8.781145   2.988734   -2.000096 C.2        1 UNL1     0.0801
     12 C         8.706625   5.686889   -1.095998 C.ar        1 UNL1     0.0753
     13 C         7.606864   4.806677   -0.842303 C.ar        1 UNL1     0.0305
     14 C         7.55935   3.459403   -1.405903 C.2        1 UNL1     0.0924
     15 N         8.610552   1.658769   -2.09294 N.pl3        1 UNL1     -0.3170
     16 C         7.195765   1.397675   -2.114406 C.3        1 UNL1     0.1275
     17 N         6.586734   2.553464   -1.358789 N.2        1 UNL1     -0.2557
     18 C         6.730709   1.544743   -3.560019 C.3        1 UNL1     0.0016
     19 C         7.554584   0.611837   -4.433235 C.3        1 UNL1     0.0026
     20 N         7.372556   -0.753638   -3.960612 N.3        1 UNL1     -0.3018
     21 C         7.735161   -0.980327   -2.560077 C.3        1 UNL1     0.0026
     22 C         6.892441   -0.036327   -1.700668 C.3        1 UNL1     0.0016
     23 C         7.867931   -1.744597   -4.895089 C.3        1 UNL1     0.0012
     24 C         6.972976   -1.802918   -6.143051 C.3        1 UNL1     -0.0339
     25 C         7.545663   -0.948897   -7.286176 C.3        1 UNL1     -0.0615
     26 C         6.769623   -3.245903   -6.571097 C.3        1 UNL1     -0.0615
     27 C         8.689392   7.008613   -0.656831 C.ar        1 UNL1     0.1347
     28 C         7.615386   7.572542   0.00841 C.ar        1 UNL1     0.0342
     29 C         6.564582   6.673823   0.289975 C.ar        1 UNL1     0.1435
     30 C         6.583519   5.337688   -0.112025 C.ar        1 UNL1     0.0774
     31 O         5.402545   7.096448   0.834094 O.3        1 UNL1     -0.4436
     32 C         4.46086   6.055985   0.531539 C.3        1 UNL1     0.3143
     33 C         5.300454   4.814423   0.308337 C.2        1 UNL1     0.2504
     34 C         7.420515   9.037171   0.285876 C.3        1 UNL1     -0.0327
     35 O         3.684182   5.827402   1.713813 O.2        1 UNL1     -0.4528
     36 C         0.275094   4.6694   0.511633 C.3        1 UNL1     0.0854
     37 C         -0.09307   3.441965   -0.407813 C.3        1 UNL1     0.0236
     38 C         -1.162962   2.424968   0.218919 C.3        1 UNL1     0.1131
     39 C         -0.941968   1.853053   1.677118 C.3        1 UNL1     0.0200
     40 C         0.567087   1.332063   2.160605 C.3        1 UNL1     0.0661
     41 C         1.571767   0.266412   1.304673 C.3        1 UNL1     0.0091
     42 C         3.401403   0.175964   1.206425 C.3        1 UNL1     0.0661
     43 C         9.827943   5.17135   -1.920088 C.2        1 UNL1     0.2131
     44 O         10.603559   5.888713   -2.52552 O.2        1 UNL1     -0.2851
     45 O         9.819007   7.785648   -0.905076 O.3        1 UNL1     -0.5056
     46 O         4.987624   3.655214   0.463985 O.2        1 UNL1     -0.2836
     47 C         5.044499   0.158211   3.308266 C.3        1 UNL1     -0.0566
     48 O         3.455037   -1.288431   1.433988 O.3        1 UNL1     -0.3909
     49 C         1.046742   0.128461   -0.106997 C.3        1 UNL1     -0.0577
     50 O         1.328155   2.407293   2.672834 O.3        1 UNL1     -0.3910
     51 O         -0.238597   4.632045   1.823943 O.3        1 UNL1     -0.3753
     52 C         1.136161   2.947738   -1.238282 C.3        1 UNL1     -0.0564
     53 O         -1.754537   1.480733   -0.78646 O.3        1 UNL1     -0.4608
     54 C         -2.379765   0.296963   -0.493702 C.2        1 UNL1     0.3042
     55 O         -1.981279   -0.839936   -0.743719 O.2        1 UNL1     -0.2512
     56 C         -3.664224   0.46718   0.266499 C.3        1 UNL1     0.0332
     57 C         -1.771297   2.774759   2.687486 C.3        1 UNL1     -0.0567
     58 C         3.787913   6.449873   -0.803948 C.3        1 UNL1     0.0210
     59 C         -0.429722   5.909838   2.429403 C.3        1 UNL1     0.0372
     60 C         1.731488   4.952909   0.62868 C.2        1 UNL1     -0.0208
     61 C         2.473369   5.237722   1.699772 C.2        1 UNL1     0.0882
     62 H         4.915054   1.615367   1.744854 H        1 UNL1     0.0365
     63 H         6.880785   2.013759   1.360909 H        1 UNL1     0.0576
     64 H         8.489766   -0.586999   0.981414 H        1 UNL1     0.0615
     65 H         9.237738   2.434337   0.716979 H        1 UNL1     0.0622
     66 H         -0.160865   5.538602   -0.000689 H        1 UNL1     0.0645
     67 H         -0.673327   3.889824   -1.233213 H        1 UNL1     0.0362
     68 H         -2.031275   3.096815   0.297502 H        1 UNL1     0.0741
     69 H         -1.549286   0.966057   1.798817 H        1 UNL1     0.0359
     70 H         0.287645   0.740848   3.053598 H        1 UNL1     0.0600
     71 H         1.254712   -0.697303   1.749292 H        1 UNL1     0.0348
     72 H         3.174698   0.75661   2.112389 H        1 UNL1     0.0602
     73 H         2.151693   5.029088   -0.343365 H        1 UNL1     0.0628
     74 H         2.135421   5.128199   2.730807 H        1 UNL1     0.1022
     75 H         11.67259   -0.634734   -0.451279 H        1 UNL1     0.0279
     76 H         12.129766   0.451338   -1.702174 H        1 UNL1     0.0279
     77 H         12.873872   0.522858   -0.053996 H        1 UNL1     0.0279
     78 H         10.931021   2.13958   -2.535506 H        1 UNL1     0.1553
     79 H         9.284263   1.038069   -2.502548 H        1 UNL1     0.1484
     80 H         5.661587   1.307189   -3.617575 H        1 UNL1     0.0317
     81 H         6.840902   2.579019   -3.903212 H        1 UNL1     0.0317
     82 H         8.618518   0.891025   -4.436562 H        1 UNL1     0.0428
     83 H         7.20785   0.734034   -5.459828 H        1 UNL1     0.0428
     84 H         7.514319   -1.992846   -2.208161 H        1 UNL1     0.0428
     85 H         8.815808   -0.870133   -2.394617 H        1 UNL1     0.0428
     86 H         7.085447   -0.321272   -0.683052 H        1 UNL1     0.0317
     87 H         5.826993   -0.262648   -1.829877 H        1 UNL1     0.0317
     88 H         8.8789   -1.447831   -5.203579 H        1 UNL1     0.0429
     89 H         7.952689   -2.731456   -4.422121 H        1 UNL1     0.0429
     90 H         5.976532   -1.422729   -5.888554 H        1 UNL1     0.0308
     91 H         8.560442   -1.263412   -7.54772 H        1 UNL1     0.0233
     92 H         6.910364   -1.013928   -8.172615 H        1 UNL1     0.0233
     93 H         7.599524   0.115163   -7.025961 H        1 UNL1     0.0233
     94 H         6.29841   -3.283934   -7.5592 H        1 UNL1     0.0233
     95 H         7.735001   -3.755326   -6.638155 H        1 UNL1     0.0233
     96 H         6.133825   -3.786063   -5.864022 H        1 UNL1     0.0233
     97 H         6.474848   9.235706   0.781384 H        1 UNL1     0.0280
     98 H         8.197498   9.439734   0.948821 H        1 UNL1     0.0280
     99 H         7.437927   9.598038   -0.662923 H        1 UNL1     0.0280
     100 H         9.646903   8.594286   -1.354639 H        1 UNL1     0.2922
     101 H         4.001901   -0.008034   3.578467 H        1 UNL1     0.0236
     102 H         5.528275   0.877661   3.968065 H        1 UNL1     0.0236
     103 H         5.545431   -0.800628   3.52248 H        1 UNL1     0.0236
     104 H         3.596169   -1.433383   2.390044 H        1 UNL1     0.2098
     105 H         1.212493   1.000213   -0.734999 H        1 UNL1     0.0234
     106 H         1.365049   -0.776213   -0.62485 H        1 UNL1     0.0234
     107 H         0.0   -0.0   0.0 H        1 UNL1     0.0234
     108 H         1.483937   3.02929   1.936206 H        1 UNL1     0.2098
     109 H         1.976321   2.645064   -0.59779 H        1 UNL1     0.0234
     110 H         0.889962   2.133797   -1.928667 H        1 UNL1     0.0234
     111 H         1.52926   3.739607   -1.889713 H        1 UNL1     0.0234
     112 H         -4.099653   -0.512492   0.485565 H        1 UNL1     0.0342
     113 H         -3.52677   1.046383   1.178351 H        1 UNL1     0.0342
     114 H         -4.370969   1.014635   -0.372227 H        1 UNL1     0.0342
     115 H         -2.843037   2.784201   2.445676 H        1 UNL1     0.0234
     116 H         -1.673666   2.484256   3.735401 H        1 UNL1     0.0234
     117 H         -1.52526   3.847584   2.607146 H        1 UNL1     0.0234
     118 H         2.95863   7.163534   -0.65568 H        1 UNL1     0.0309
     119 H         4.490946   6.864289   -1.533473 H        1 UNL1     0.0309
     120 H         3.304401   5.599889   -1.297759 H        1 UNL1     0.0309
     121 H         0.545717   6.39031   2.500264 H        1 UNL1     0.0524
     122 H         -1.07972   6.565511   1.826384 H        1 UNL1     0.0524
     123 H         -0.864161   5.795865   3.418528 H        1 UNL1     0.0524
@<TRIPOS>BOND
     1     1     2    1
     2     1    42    1
     3     2     3    2
     4     3     4    1
     5     4     5    2
     6     5     7    1
     7     6    75    1
     8     6    76    1
     9     6    77    1
    10     7     9   am
    11     9    10    1
    12    10    11    2
    13    10    43    1
    14    11    14    1
    15    11    15    1
    16    12    13   ar
    17    12    27   ar
    18    12    43    1
    19    13    14    1
    20    13    30   ar
    21    14    17    2
    22    15    16    1
    23    16    17    1
    24    16    18    1
    25    16    22    1
    26    18    19    1
    27    19    20    1
    28    20    21    1
    29    21    22    1
    30    23    24    1
    31    23    88    1
    32    23    89    1
    33    24    25    1
    34    24    26    1
    35    24    90    1
    36    25    91    1
    37    25    92    1
    38    25    93    1
    39    26    94    1
    40    26    95    1
    41    26    96    1
    42    27    28   ar
    43    28    29   ar
    44    29    30   ar
    45    29    31    1
    46    30    33    1
    47    31    32    1
    48    32    33    1
    49    32    35    1
    50    34    97    1
    51    34    98    1
    52    34    99    1
    53    35    61    1
    54    36    37    1
    55    36    60    1
    56    37    38    1
    57    38    39    1
    58    39    40    1
    59    40    41    1
    60    41    42    1
    61    45   100    1
    62    47   101    1
    63    47   102    1
    64    47   103    1
    65    48   104    1
    66    49   105    1
    67    49   106    1
    68    49   107    1
    69    50   108    1
    70    51    59    1
    71    52   109    1
    72    52   110    1
    73    52   111    1
    74    53    54    1
    75    54    55    2
    76    54    56    1
    77    56   112    1
    78    56   113    1
    79    56   114    1
    80    57   115    1
    81    57   116    1
    82    57   117    1
    83    58   118    1
    84    58   119    1
    85    58   120    1
    86    59   121    1
    87    59   122    1
    88    59   123    1
    89    60    61    2
    90     1    47    1
    91     1    62    1
    92     2    63    1
    93     3    64    1
    94     4    65    1
    95     5     6    1
    96     7     8    2
    97     9    78    1
    98    15    79    1
    99    18    80    1
   100    18    81    1
   101    19    82    1
   102    19    83    1
   103    20    23    1
   104    21    84    1
   105    21    85    1
   106    22    86    1
   107    22    87    1
   108    27    45    1
   109    28    34    1
   110    32    58    1
   111    33    46    2
   112    36    51    1
   113    36    66    1
   114    37    52    1
   115    37    67    1
   116    38    53    1
   117    38    68    1
   118    42    48    1
   119    42    72    1
   120    43    44    2
   121    60    73    1
   122    61    74    1
   123    39    69    1
   124    39    57    1
   125    40    70    1
   126    40    50    1
   127    41    71    1
   128    41    49    1
