@<TRIPOS>MOLECULE
*****
 123 128 0 0 0
SMALL
GASTEIGER

@<TRIPOS>ATOM
     1 C         4.983196   2.081802   0.912759 C.3        1 UNL1     0.0009
     2 C         6.415606   3.011769   0.191372 C.2        1 UNL1     -0.0787
     3 C         7.744898   3.023416   -0.382122 C.2        1 UNL1     -0.0649
     4 C         8.583861   4.339747   -1.037691 C.2        1 UNL1     -0.0542
     5 C         9.644192   4.732056   -1.89143 C.2        1 UNL1     0.0115
     6 C         10.87191   4.213955   -2.689929 C.3        1 UNL1     -0.0348
     7 C         9.676914   6.237348   -2.448218 C.2        1 UNL1     0.2441
     8 O         10.412023   7.100765   -1.989251 O.2        1 UNL1     -0.2702
     9 N         8.998222   6.430489   -3.664041 N.am        1 UNL1     -0.2772
     10 C         7.672485   6.717925   -3.43355 C.2        1 UNL1     0.1049
     11 C         6.879028   5.681836   -3.230654 C.2        1 UNL1     0.0801
     12 C         6.167692   8.184965   -2.076816 C.ar        1 UNL1     0.0753
     13 C         5.460641   6.993694   -1.716869 C.ar        1 UNL1     0.0305
     14 C         5.714714   5.720819   -2.387903 C.2        1 UNL1     0.0924
     15 N         7.106172   4.370281   -3.417087 N.pl3        1 UNL1     -0.3170
     16 C         5.862879   3.675577   -3.212478 C.3        1 UNL1     0.1275
     17 N         5.093149   4.552491   -2.255263 N.2        1 UNL1     -0.2557
     18 C         5.099073   3.717248   -4.532541 C.3        1 UNL1     0.0016
     19 C         5.977996   3.123663   -5.621917 C.3        1 UNL1     0.0026
     20 N         6.317033   1.755462   -5.255706 N.3        1 UNL1     -0.3018
     21 C         7.00067   1.607422   -3.969202 C.3        1 UNL1     0.0026
     22 C         6.098083   2.20603   -2.88897 C.3        1 UNL1     0.0016
     23 C         6.895371   1.004937   -6.352465 C.3        1 UNL1     0.0012
     24 C         5.832461   0.709032   -7.42224 C.3        1 UNL1     -0.0339
     25 C         5.868993   1.749058   -8.554082 C.3        1 UNL1     -0.0615
     26 C         6.008044   -0.702635   -7.954355 C.3        1 UNL1     -0.0615
     27 C         5.836461   9.417381   -1.518646 C.ar        1 UNL1     0.1347
     28 C         4.795551   9.589127   -0.623626 C.ar        1 UNL1     0.0342
     29 C         4.14526   8.394859   -0.246784 C.ar        1 UNL1     0.1435
     30 C         4.489807   7.148049   -0.770206 C.ar        1 UNL1     0.0774
     31 O         3.04135   8.408933   0.531799 O.3        1 UNL1     -0.4436
     32 C         2.420417   7.134852   0.303692 C.3        1 UNL1     0.3143
     33 C         3.536316   6.231398   -0.180822 C.2        1 UNL1     0.2504
     34 C         4.223361   10.906303   -0.178939 C.3        1 UNL1     -0.0327
     35 O         1.999788   6.631779   1.577757 O.2        1 UNL1     -0.4528
     36 C         -1.062583   4.495874   0.89374 C.3        1 UNL1     0.0854
     37 C         -1.214098   3.247263   -0.057856 C.3        1 UNL1     0.0236
     38 C         -1.777992   1.923012   0.64934 C.3        1 UNL1     0.1131
     39 C         -1.109938   1.400909   1.984773 C.3        1 UNL1     0.0200
     40 C         0.550358   1.368272   2.142225 C.3        1 UNL1     0.0661
     41 C         1.64156   0.705506   1.025252 C.3        1 UNL1     0.0091
     42 C         3.354706   1.202417   0.59675 C.3        1 UNL1     0.0661
     43 C         7.206584   8.079508   -3.131256 C.2        1 UNL1     0.2131
     44 O         7.591575   9.025824   -3.793831 O.2        1 UNL1     -0.2851
     45 O         6.603789   10.520111   -1.888284 O.3        1 UNL1     -0.5056
     46 O         3.628086   5.028166   -0.082515 O.2        1 UNL1     -0.2836
     47 C         5.306699   1.633838   2.363502 C.3        1 UNL1     -0.0566
     48 O         3.895012   -0.176549   0.671841 O.3        1 UNL1     -0.3909
     49 C         0.915256   0.456848   -0.277878 C.3        1 UNL1     -0.0577
     50 O         1.033835   2.610946   2.610986 O.3        1 UNL1     -0.3910
     51 O         -1.27059   4.252886   2.266737 O.3        1 UNL1     -0.3753
     52 C         -0.082383   3.196394   -1.135624 C.3        1 UNL1     -0.0564
     53 O         -2.240815   0.875065   -0.320159 O.3        1 UNL1     -0.4608
     54 C         -2.393027   -0.457312   -0.038142 C.2        1 UNL1     0.3042
     55 O         -1.722014   -1.393637   -0.470434 O.2        1 UNL1     -0.2512
     56 C         -3.480668   -0.740632   0.958592 C.3        1 UNL1     0.0332
     57 C         -1.963432   1.977455   3.208422 C.3        1 UNL1     -0.0567
     58 C         1.409576   7.340901   -0.848381 C.3        1 UNL1     0.0210
     59 C         -1.747712   5.374558   3.008405 C.3        1 UNL1     0.0372
     60 C         0.231555   5.221727   0.777527 C.2        1 UNL1     -0.0208
     61 C         1.047979   5.689923   1.722507 C.2        1 UNL1     0.0882
     62 H         4.433948   3.027683   0.992437 H        1 UNL1     0.0365
     63 H         6.068795   4.040854   0.306153 H        1 UNL1     0.0576
     64 H         8.284163   2.097918   -0.596021 H        1 UNL1     0.0615
     65 H         8.010098   5.207825   -0.701954 H        1 UNL1     0.0622
     66 H         -1.834447   5.199337   0.551084 H        1 UNL1     0.0645
     67 H         -2.054167   3.516352   -0.721508 H        1 UNL1     0.0362
     68 H         -2.775974   2.282271   0.943428 H        1 UNL1     0.0741
     69 H         -1.3821   0.363641   2.127642 H        1 UNL1     0.0359
     70 H         0.646221   0.688784   3.010653 H        1 UNL1     0.0600
     71 H         1.727047   -0.323643   1.425876 H        1 UNL1     0.0348
     72 H         3.145893   1.650031   1.579275 H        1 UNL1     0.0602
     73 H         0.407879   5.460268   -0.241913 H        1 UNL1     0.0628
     74 H         0.970109   5.443798   2.782034 H        1 UNL1     0.1022
     75 H         10.983516   3.109924   -2.56466 H        1 UNL1     0.0279
     76 H         10.828908   4.32387   -3.771197 H        1 UNL1     0.0279
     77 H         11.827449   4.576005   -2.283029 H        1 UNL1     0.0279
     78 H         9.034953   5.575903   -4.215775 H        1 UNL1     0.1553
     79 H         7.841827   4.009229   -3.996211 H        1 UNL1     0.1484
     80 H         4.163619   3.155536   -4.42222 H        1 UNL1     0.0317
     81 H         4.819396   4.744317   -4.790536 H        1 UNL1     0.0317
     82 H         6.883922   3.725283   -5.787033 H        1 UNL1     0.0428
     83 H         5.414828   3.164871   -6.554759 H        1 UNL1     0.0428
     84 H         7.17234   0.565646   -3.681031 H        1 UNL1     0.0428
     85 H         8.006922   2.048359   -3.987884 H        1 UNL1     0.0428
     86 H         6.565712   1.962182   -1.953101 H        1 UNL1     0.0317
     87 H         5.148476   1.658583   -2.848434 H        1 UNL1     0.0317
     88 H         7.686285   1.6169   -6.80551 H        1 UNL1     0.0429
     89 H         7.367953   0.080096   -5.997344 H        1 UNL1     0.0429
     90 H         4.839376   0.732811   -6.958098 H        1 UNL1     0.0308
     91 H         6.854558   1.786989   -9.027712 H        1 UNL1     0.0233
     92 H         5.115441   1.52196   -9.311839 H        1 UNL1     0.0233
     93 H         5.64825   2.762406   -8.197384 H        1 UNL1     0.0233
     94 H         5.383208   -0.852321   -8.841491 H        1 UNL1     0.0233
     95 H         7.049807   -0.86575   -8.244333 H        1 UNL1     0.0233
     96 H         5.72913   -1.449011   -7.20529 H        1 UNL1     0.0233
     97 H         3.385424   10.7782   0.499796 H        1 UNL1     0.0280
     98 H         4.958777   11.515119   0.363058 H        1 UNL1     0.0280
     99 H         3.872874   11.471949   -1.057745 H        1 UNL1     0.0280
     100 H         6.1088   11.246827   -2.223684 H        1 UNL1     0.2922
     101 H         4.443284   1.125868   2.792614 H        1 UNL1     0.0236
     102 H         5.657563   2.448885   2.995622 H        1 UNL1     0.0236
     103 H         6.115985   0.885337   2.395069 H        1 UNL1     0.0236
     104 H         4.259876   -0.301889   1.569691 H        1 UNL1     0.2098
     105 H         0.680494   1.357197   -0.840079 H        1 UNL1     0.0234
     106 H         1.384677   -0.282214   -0.926999 H        1 UNL1     0.0234
     107 H         0.0   -0.0   0.0 H        1 UNL1     0.0234
     108 H         0.836037   3.276813   1.924499 H        1 UNL1     0.2098
     109 H         0.918602   3.141083   -0.685424 H        1 UNL1     0.0234
     110 H         -0.207389   2.377886   -1.852675 H        1 UNL1     0.0234
     111 H         -0.077748   4.099383   -1.760553 H        1 UNL1     0.0234
     112 H         -3.545877   -1.817365   1.142275 H        1 UNL1     0.0342
     113 H         -3.336147   -0.193601   1.889029 H        1 UNL1     0.0342
     114 H         -4.436314   -0.414368   0.525627 H        1 UNL1     0.0342
     115 H         -3.006969   1.635191   3.175642 H        1 UNL1     0.0234
     116 H         -1.563245   1.717349   4.190381 H        1 UNL1     0.0234
     117 H         -2.097122   3.072399   3.174279 H        1 UNL1     0.0234
     118 H         0.449564   7.751226   -0.489194 H        1 UNL1     0.0309
     119 H         1.795102   7.980068   -1.64903 H        1 UNL1     0.0309
     120 H         1.118721   6.398846   -1.325918 H        1 UNL1     0.0309
     121 H         -0.990379   6.155719   2.948472 H        1 UNL1     0.0524
     122 H         -2.682078   5.785327   2.590952 H        1 UNL1     0.0524
     123 H         -1.917183   5.095491   4.044501 H        1 UNL1     0.0524
@<TRIPOS>BOND
     1     1     2    1
     2     1    42    1
     3     2     3    2
     4     3     4    1
     5     4     5    2
     6     5     7    1
     7     6    75    1
     8     6    76    1
     9     6    77    1
    10     7     9   am
    11     9    10    1
    12    10    11    2
    13    10    43    1
    14    11    14    1
    15    11    15    1
    16    12    13   ar
    17    12    27   ar
    18    12    43    1
    19    13    14    1
    20    13    30   ar
    21    14    17    2
    22    15    16    1
    23    16    17    1
    24    16    18    1
    25    16    22    1
    26    18    19    1
    27    19    20    1
    28    20    21    1
    29    21    22    1
    30    23    24    1
    31    23    88    1
    32    23    89    1
    33    24    25    1
    34    24    26    1
    35    24    90    1
    36    25    91    1
    37    25    92    1
    38    25    93    1
    39    26    94    1
    40    26    95    1
    41    26    96    1
    42    27    28   ar
    43    28    29   ar
    44    29    30   ar
    45    29    31    1
    46    30    33    1
    47    31    32    1
    48    32    33    1
    49    32    35    1
    50    34    97    1
    51    34    98    1
    52    34    99    1
    53    35    61    1
    54    36    37    1
    55    36    60    1
    56    37    38    1
    57    38    39    1
    58    39    40    1
    59    40    41    1
    60    41    42    1
    61    45   100    1
    62    47   101    1
    63    47   102    1
    64    47   103    1
    65    48   104    1
    66    49   105    1
    67    49   106    1
    68    49   107    1
    69    50   108    1
    70    51    59    1
    71    52   109    1
    72    52   110    1
    73    52   111    1
    74    53    54    1
    75    54    55    2
    76    54    56    1
    77    56   112    1
    78    56   113    1
    79    56   114    1
    80    57   115    1
    81    57   116    1
    82    57   117    1
    83    58   118    1
    84    58   119    1
    85    58   120    1
    86    59   121    1
    87    59   122    1
    88    59   123    1
    89    60    61    2
    90     1    47    1
    91     1    62    1
    92     2    63    1
    93     3    64    1
    94     4    65    1
    95     5     6    1
    96     7     8    2
    97     9    78    1
    98    15    79    1
    99    18    80    1
   100    18    81    1
   101    19    82    1
   102    19    83    1
   103    20    23    1
   104    21    84    1
   105    21    85    1
   106    22    86    1
   107    22    87    1
   108    27    45    1
   109    28    34    1
   110    32    58    1
   111    33    46    2
   112    36    51    1
   113    36    66    1
   114    37    52    1
   115    37    67    1
   116    38    53    1
   117    38    68    1
   118    42    48    1
   119    42    72    1
   120    43    44    2
   121    60    73    1
   122    61    74    1
   123    39    69    1
   124    39    57    1
   125    40    70    1
   126    40    50    1
   127    41    71    1
   128    41    49    1
