@<TRIPOS>MOLECULE
*****
 123 128 0 0 0
SMALL
GASTEIGER

@<TRIPOS>ATOM
     1 C         0.896735   -0.922378   5.30242 C.3        1 UNL1     0.0009
     2 C         0.74147   -2.166272   6.66831 C.2        1 UNL1     -0.0787
     3 C         0.092692   -2.630848   7.876327 C.2        1 UNL1     -0.0649
     4 C         0.354645   -4.083535   8.705445 C.2        1 UNL1     -0.0542
     5 C         -0.188513   -5.003636   9.635753 C.2        1 UNL1     0.0115
     6 C         -1.336267   -5.226731   10.658599 C.3        1 UNL1     -0.0348
     7 C         0.420718   -6.487115   9.707284 C.2        1 UNL1     0.2441
     8 O         1.194499   -6.847144   10.583735 O.2        1 UNL1     -0.2702
     9 N         -0.193603   -7.418003   8.851593 N.am        1 UNL1     -0.2772
     10 C         0.410469   -7.405445   7.615364 C.2        1 UNL1     0.1049
     11 C         0.004866   -6.467374   6.778865 C.2        1 UNL1     0.0801
     12 C         2.648111   -7.486473   6.500138 C.ar        1 UNL1     0.0753
     13 C         2.234388   -6.332523   5.761326 C.ar        1 UNL1     0.0305
     14 C         0.849878   -5.86593   5.783075 C.2        1 UNL1     0.0924
     15 N         -1.053903   -5.642746   6.853183 N.pl3        1 UNL1     -0.3170
     16 C         -1.145056   -4.931183   5.605937 C.3        1 UNL1     0.1275
     17 N         0.273102   -4.887143   5.091532 N.2        1 UNL1     -0.2557
     18 C         -1.92022   -5.817208   4.635483 C.3        1 UNL1     0.0016
     19 C         -3.262372   -6.16424   5.259813 C.3        1 UNL1     0.0026
     20 N         -3.984517   -4.929351   5.532914 N.3        1 UNL1     -0.3018
     21 C         -3.290156   -3.983929   6.409503 C.3        1 UNL1     0.0026
     22 C         -1.946783   -3.645576   5.760842 C.3        1 UNL1     0.0016
     23 C         -5.381972   -5.150946   5.847014 C.3        1 UNL1     0.0012
     24 C         -6.246409   -5.012739   4.58392 C.3        1 UNL1     -0.0339
     25 C         -5.545539   -5.613473   3.354303 C.3        1 UNL1     -0.0615
     26 C         -7.609114   -5.642734   4.813966 C.3        1 UNL1     -0.0615
     27 C         3.938894   -7.995913   6.37986 C.ar        1 UNL1     0.1347
     28 C         4.887866   -7.462756   5.525901 C.ar        1 UNL1     0.0342
     29 C         4.473703   -6.298045   4.8454 C.ar        1 UNL1     0.1435
     30 C         3.195627   -5.755179   4.983374 C.ar        1 UNL1     0.0774
     31 O         5.24483   -5.724861   3.895753 O.3        1 UNL1     -0.4436
     32 C         4.33855   -4.912881   3.134033 C.3        1 UNL1     0.3143
     33 C         3.176689   -4.634808   4.066217 C.2        1 UNL1     0.2504
     34 C         6.199147   -8.099032   5.157396 C.3        1 UNL1     -0.0327
     35 O         4.989435   -3.659254   2.893157 O.2        1 UNL1     -0.4528
     36 C         3.628672   -2.399662   -0.418918 C.3        1 UNL1     0.0854
     37 C         2.13484   -2.120332   -0.840775 C.3        1 UNL1     0.0236
     38 C         1.853553   -0.640833   -1.391868 C.3        1 UNL1     0.1131
     39 C         2.333899   0.613027   -0.555583 C.3        1 UNL1     0.0200
     40 C         2.117089   0.659296   1.097684 C.3        1 UNL1     0.0661
     41 C         0.66928   0.333553   1.919481 C.3        1 UNL1     0.0091
     42 C         0.379974   -0.408403   3.572117 C.3        1 UNL1     0.0661
     43 C         1.630068   -8.176168   7.330902 C.2        1 UNL1     0.2131
     44 O         1.721899   -9.33901   7.680334 O.2        1 UNL1     -0.2851
     45 O         4.274888   -9.094516   7.168287 O.3        1 UNL1     -0.5056
     46 O         2.419716   -3.689903   4.065777 O.2        1 UNL1     -0.2836
     47 C         1.573348   0.372693   5.826793 C.3        1 UNL1     -0.0566
     48 O         -0.595038   0.626949   3.992253 O.3        1 UNL1     -0.3909
     49 C         -0.296237   -0.329854   0.962839 C.3        1 UNL1     -0.0577
     50 O         3.199898   0.040373   1.76265 O.3        1 UNL1     -0.3910
     51 O         4.486133   -1.280675   -0.411121 O.3        1 UNL1     -0.3753
     52 C         1.119673   -2.870604   0.08198 C.3        1 UNL1     -0.0564
     53 O         0.539707   -0.505069   -2.104402 O.3        1 UNL1     -0.4608
     54 C         -0.28764   0.585794   -2.045721 C.2        1 UNL1     0.3042
     55 O         -0.514485   1.299469   -1.06948 O.2        1 UNL1     -0.2512
     56 C         -0.917678   0.934365   -3.364154 C.3        1 UNL1     0.0332
     57 C         3.755957   1.06223   -1.133633 C.3        1 UNL1     -0.0567
     58 C         3.840063   -5.793183   1.964371 C.3        1 UNL1     0.0210
     59 C         5.523108   -1.31332   -1.390653 C.3        1 UNL1     0.0372
     60 C         3.794644   -3.076785   0.896042 C.2        1 UNL1     -0.0208
     61 C         4.635011   -2.82168   1.899759 C.2        1 UNL1     0.0882
     62 H         1.692497   -1.534618   4.861244 H        1 UNL1     0.0365
     63 H         1.580894   -2.826075   6.43919 H        1 UNL1     0.0576
     64 H         -0.78355   -2.123984   8.286687 H        1 UNL1     0.0615
     65 H         1.285799   -4.463974   8.276841 H        1 UNL1     0.0622
     66 H         4.000166   -3.1088   -1.172019 H        1 UNL1     0.0645
     67 H         1.996715   -2.724699   -1.754132 H        1 UNL1     0.0362
     68 H         2.490803   -0.654548   -2.289224 H        1 UNL1     0.0741
     69 H         1.787993   1.484817   -0.890808 H        1 UNL1     0.0359
     70 H         2.263211   1.741354   1.278954 H        1 UNL1     0.0600
     71 H         0.24706   1.355828   1.979821 H        1 UNL1     0.0348
     72 H         1.423238   -0.060679   3.574235 H        1 UNL1     0.0602
     73 H         3.193077   -3.951388   0.916906 H        1 UNL1     0.0628
     74 H         5.241923   -1.919356   1.981661 H        1 UNL1     0.1022
     75 H         -1.847999   -6.200683   10.467334 H        1 UNL1     0.0279
     76 H         -1.044996   -5.316223   11.702736 H        1 UNL1     0.0279
     77 H         -2.166002   -4.516614   10.528312 H        1 UNL1     0.0279
     78 H         -1.170781   -7.166506   8.717618 H        1 UNL1     0.1553
     79 H         -1.847759   -5.80748   7.444444 H        1 UNL1     0.1484
     80 H         -2.0463   -5.28275   3.686155 H        1 UNL1     0.0317
     81 H         -1.361363   -6.73147   4.408648 H        1 UNL1     0.0317
     82 H         -3.143159   -6.763603   6.174397 H        1 UNL1     0.0428
     83 H         -3.797895   -6.797804   4.552098 H        1 UNL1     0.0428
     84 H         -3.817318   -3.032945   6.534166 H        1 UNL1     0.0428
     85 H         -3.192945   -4.371276   7.433138 H        1 UNL1     0.0428
     86 H         -1.527868   -2.856404   6.357252 H        1 UNL1     0.0317
     87 H         -2.110577   -3.168141   4.787022 H        1 UNL1     0.0317
     88 H         -5.487401   -6.17348   6.232505 H        1 UNL1     0.0429
     89 H         -5.725391   -4.471989   6.638124 H        1 UNL1     0.0429
     90 H         -6.436189   -3.949829   4.393086 H        1 UNL1     0.0308
     91 H         -6.129701   -5.449395   2.443845 H        1 UNL1     0.0233
     92 H         -4.551375   -5.179066   3.225704 H        1 UNL1     0.0233
     93 H         -5.396628   -6.696185   3.445934 H        1 UNL1     0.0233
     94 H         -7.565038   -6.719752   4.619223 H        1 UNL1     0.0233
     95 H         -7.915739   -5.500482   5.854017 H        1 UNL1     0.0233
     96 H         -8.367261   -5.203925   4.159269 H        1 UNL1     0.0233
     97 H         6.288008   -8.258654   4.08695 H        1 UNL1     0.0280
     98 H         7.056314   -7.474117   5.44024 H        1 UNL1     0.0280
     99 H         6.290075   -9.075315   5.661081 H        1 UNL1     0.0280
     100 H         4.053862   -9.005326   8.07868 H        1 UNL1     0.2922
     101 H         1.877184   0.995297   4.985541 H        1 UNL1     0.0236
     102 H         2.39873   0.178315   6.510858 H        1 UNL1     0.0236
     103 H         0.873694   1.001689   6.402154 H        1 UNL1     0.0236
     104 H         -0.279471   1.485821   3.649141 H        1 UNL1     0.2098
     105 H         -0.2588   -1.416306   0.968446 H        1 UNL1     0.0234
     106 H         -1.327474   0.01304   1.045919 H        1 UNL1     0.0234
     107 H         0.0   0.0   0.0 H        1 UNL1     0.0234
     108 H         2.924433   -0.110522   2.687376 H        1 UNL1     0.2098
     109 H         1.249887   -3.96114   0.043425 H        1 UNL1     0.0234
     110 H         1.154863   -2.533987   1.123706 H        1 UNL1     0.0234
     111 H         0.081316   -2.684274   -0.223051 H        1 UNL1     0.0234
     112 H         -1.572551   1.802946   -3.245612 H        1 UNL1     0.0342
     113 H         -0.173844   1.108873   -4.140107 H        1 UNL1     0.0342
     114 H         -1.538353   0.085632   -3.682871 H        1 UNL1     0.0342
     115 H         3.897493   2.149949   -1.070197 H        1 UNL1     0.0234
     116 H         4.606184   0.590931   -0.6366 H        1 UNL1     0.0234
     117 H         3.861639   0.896562   -2.219601 H        1 UNL1     0.0234
     118 H         4.235857   -5.452921   0.99145 H        1 UNL1     0.0309
     119 H         4.074568   -6.854375   2.095068 H        1 UNL1     0.0309
     120 H         2.754421   -5.736981   1.828987 H        1 UNL1     0.0309
     121 H         5.834639   -0.285608   -1.575349 H        1 UNL1     0.0524
     122 H         6.408722   -1.871441   -1.043918 H        1 UNL1     0.0524
     123 H         5.158724   -1.765299   -2.308822 H        1 UNL1     0.0524
@<TRIPOS>BOND
     1     1     2    1
     2     1    42    1
     3     2     3    2
     4     3     4    1
     5     4     5    2
     6     5     7    1
     7     6    75    1
     8     6    76    1
     9     6    77    1
    10     7     9   am
    11     9    10    1
    12    10    11    2
    13    10    43    1
    14    11    14    1
    15    11    15    1
    16    12    13   ar
    17    12    27   ar
    18    12    43    1
    19    13    14    1
    20    13    30   ar
    21    14    17    2
    22    15    16    1
    23    16    17    1
    24    16    18    1
    25    16    22    1
    26    18    19    1
    27    19    20    1
    28    20    21    1
    29    21    22    1
    30    23    24    1
    31    23    88    1
    32    23    89    1
    33    24    25    1
    34    24    26    1
    35    24    90    1
    36    25    91    1
    37    25    92    1
    38    25    93    1
    39    26    94    1
    40    26    95    1
    41    26    96    1
    42    27    28   ar
    43    28    29   ar
    44    29    30   ar
    45    29    31    1
    46    30    33    1
    47    31    32    1
    48    32    33    1
    49    32    35    1
    50    34    97    1
    51    34    98    1
    52    34    99    1
    53    35    61    1
    54    36    37    1
    55    36    60    1
    56    37    38    1
    57    38    39    1
    58    39    40    1
    59    40    41    1
    60    41    42    1
    61    45   100    1
    62    47   101    1
    63    47   102    1
    64    47   103    1
    65    48   104    1
    66    49   105    1
    67    49   106    1
    68    49   107    1
    69    50   108    1
    70    51    59    1
    71    52   109    1
    72    52   110    1
    73    52   111    1
    74    53    54    1
    75    54    55    2
    76    54    56    1
    77    56   112    1
    78    56   113    1
    79    56   114    1
    80    57   115    1
    81    57   116    1
    82    57   117    1
    83    58   118    1
    84    58   119    1
    85    58   120    1
    86    59   121    1
    87    59   122    1
    88    59   123    1
    89    60    61    2
    90     1    47    1
    91     1    62    1
    92     2    63    1
    93     3    64    1
    94     4    65    1
    95     5     6    1
    96     7     8    2
    97     9    78    1
    98    15    79    1
    99    18    80    1
   100    18    81    1
   101    19    82    1
   102    19    83    1
   103    20    23    1
   104    21    84    1
   105    21    85    1
   106    22    86    1
   107    22    87    1
   108    27    45    1
   109    28    34    1
   110    32    58    1
   111    33    46    2
   112    36    51    1
   113    36    66    1
   114    37    52    1
   115    37    67    1
   116    38    53    1
   117    38    68    1
   118    42    48    1
   119    42    72    1
   120    43    44    2
   121    60    73    1
   122    61    74    1
   123    39    69    1
   124    39    57    1
   125    40    70    1
   126    40    50    1
   127    41    71    1
   128    41    49    1
