@<TRIPOS>MOLECULE
*****
 123 128 0 0 0
SMALL
GASTEIGER

@<TRIPOS>ATOM
     1 C         5.166392   1.7603   0.457174 C.3        1 UNL1     0.0009
     2 C         6.595844   2.569032   -0.402859 C.2        1 UNL1     -0.0787
     3 C         7.873642   2.473242   -1.076731 C.2        1 UNL1     -0.0649
     4 C         8.74354   3.709828   -1.838629 C.2        1 UNL1     -0.0542
     5 C         9.756892   4.00414   -2.783921 C.2        1 UNL1     0.0115
     6 C         10.88088   3.380643   -3.656404 C.3        1 UNL1     -0.0348
     7 C         9.845115   5.487246   -3.391871 C.2        1 UNL1     0.2441
     8 O         10.669611   6.310902   -3.019954 O.2        1 UNL1     -0.2702
     9 N         9.086959   5.691898   -4.557834 N.am        1 UNL1     -0.2772
     10 C         7.805442   6.075974   -4.236086 C.2        1 UNL1     0.1049
     11 C         6.96366   5.102897   -3.938184 C.2        1 UNL1     0.0801
     12 C         6.512622   7.680626   -2.817973 C.ar        1 UNL1     0.0753
     13 C         5.758904   6.551326   -2.364985 C.ar        1 UNL1     0.0305
     14 C         5.874539   5.245505   -3.010362 C.2        1 UNL1     0.0924
     15 N         7.088151   3.774096   -4.097296 N.pl3        1 UNL1     -0.3170
     16 C         5.821637   3.172353   -3.774647 C.3        1 UNL1     0.1275
     17 N         5.189452   4.126775   -2.791213 N.2        1 UNL1     -0.2557
     18 C         4.960583   3.228831   -5.032859 C.3        1 UNL1     0.0016
     19 C         5.709704   2.54572   -6.165894 C.3        1 UNL1     0.0026
     20 N         5.985311   1.168434   -5.780987 N.3        1 UNL1     -0.3018
     21 C         6.756941   1.010424   -4.546487 C.3        1 UNL1     0.0026
     22 C         5.983893   1.699907   -3.420918 C.3        1 UNL1     0.0016
     23 C         6.424481   0.349215   -6.893036 C.3        1 UNL1     0.0012
     24 C         5.263313   0.096655   -7.86754 C.3        1 UNL1     -0.0339
     25 C         5.34857   1.018742   -9.094953 C.3        1 UNL1     -0.0615
     26 C         5.229983   -1.367587   -8.269615 C.3        1 UNL1     -0.0615
     27 C         6.308666   8.948188   -2.277782 C.ar        1 UNL1     0.1347
     28 C         5.355195   9.216215   -1.311809 C.ar        1 UNL1     0.0342
     29 C         4.659068   8.080514   -0.846239 C.ar        1 UNL1     0.1435
     30 C         4.878057   6.79867   -1.352343 C.ar        1 UNL1     0.0774
     31 O         3.623324   8.19232   0.013842 O.3        1 UNL1     -0.4436
     32 C         2.903434   6.957852   -0.122981 C.3        1 UNL1     0.3143
     33 C         3.915458   5.966637   -0.661046 C.2        1 UNL1     0.2504
     34 C         4.908219   10.581604   -0.869062 C.3        1 UNL1     -0.0327
     35 O         2.552195   6.521146   1.195795 O.2        1 UNL1     -0.4528
     36 C         -0.689116   4.581686   0.820984 C.3        1 UNL1     0.0854
     37 C         -0.997427   3.319912   -0.073663 C.3        1 UNL1     0.0236
     38 C         -1.590172   2.058032   0.71884 C.3        1 UNL1     0.1131
     39 C         -0.854927   1.529447   2.015868 C.3        1 UNL1     0.0200
     40 C         0.806808   1.387534   2.046461 C.3        1 UNL1     0.0661
     41 C         1.760329   0.620096   0.871963 C.3        1 UNL1     0.0091
     42 C         3.46347   0.986026   0.296803 C.3        1 UNL1     0.0661
     43 C         7.455903   7.474322   -3.94488 C.2        1 UNL1     0.2131
     44 O         7.849214   8.372839   -4.666484 O.2        1 UNL1     -0.2851
     45 O         7.115721   9.984784   -2.742076 O.3        1 UNL1     -0.5056
     46 O         3.934903   4.763218   -0.529674 O.2        1 UNL1     -0.2836
     47 C         5.572908   1.332543   1.893054 C.3        1 UNL1     -0.0566
     48 O         3.915618   -0.424053   0.376531 O.3        1 UNL1     -0.3909
     49 C         0.91871   0.384955   -0.362492 C.3        1 UNL1     -0.0577
     50 O         1.406864   2.606931   2.434695 O.3        1 UNL1     -0.3910
     51 O         -0.80386   4.392575   2.213285 O.3        1 UNL1     -0.3753
     52 C         0.039956   3.161018   -1.232773 C.3        1 UNL1     -0.0564
     53 O         -2.196277   1.017205   -0.176504 O.3        1 UNL1     -0.4608
     54 C         -2.42566   -0.289849   0.165437 C.2        1 UNL1     0.3042
     55 O         -1.856187   -1.287899   -0.274374 O.2        1 UNL1     -0.2512
     56 C         -3.459931   -0.457226   1.241998 C.3        1 UNL1     0.0332
     57 C         -1.569297   2.19763   3.281324 C.3        1 UNL1     -0.0567
     58 C         1.820771   7.199958   -1.200365 C.3        1 UNL1     0.0210
     59 C         -1.114862   5.571342   2.954669 C.3        1 UNL1     0.0372
     60 C         0.637001   5.213513   0.58147 C.2        1 UNL1     -0.0208
     61 C         1.554551   5.651249   1.444739 C.2        1 UNL1     0.0882
     62 H         4.688904   2.743491   0.546917 H        1 UNL1     0.0365
     63 H         6.327989   3.622315   -0.296467 H        1 UNL1     0.0576
     64 H         8.331967   1.507254   -1.300144 H        1 UNL1     0.0615
     65 H         8.256707   4.624375   -1.489229 H        1 UNL1     0.0622
     66 H         -1.437364   5.32641   0.51511 H        1 UNL1     0.0645
     67 H         -1.867554   3.62703   -0.679566 H        1 UNL1     0.0362
     68 H         -2.53591   2.493066   1.076396 H        1 UNL1     0.0741
     69 H         -1.182991   0.51775   2.213992 H        1 UNL1     0.0359
     70 H         0.925675   0.727981   2.927324 H        1 UNL1     0.0600
     71 H         1.808872   -0.400713   1.299219 H        1 UNL1     0.0348
     72 H         3.362824   1.474594   1.276848 H        1 UNL1     0.0602
     73 H         0.747807   5.41039   -0.455936 H        1 UNL1     0.0628
     74 H         1.544336   5.441196   2.514791 H        1 UNL1     0.1022
     75 H         10.909999   2.272111   -3.524706 H        1 UNL1     0.0279
     76 H         10.773533   3.485827   -4.733661 H        1 UNL1     0.0279
     77 H         11.888318   3.665545   -3.319357 H        1 UNL1     0.0279
     78 H         9.023477   4.821498   -5.081716 H        1 UNL1     0.1553
     79 H         7.750368   3.347173   -4.718696 H        1 UNL1     0.1484
     80 H         4.001637   2.735933   -4.832259 H        1 UNL1     0.0317
     81 H         4.729988   4.264925   -5.303016 H        1 UNL1     0.0317
     82 H         6.637599   3.078887   -6.420172 H        1 UNL1     0.0428
     83 H         5.078716   2.598966   -7.053626 H        1 UNL1     0.0428
     84 H         6.881509   -0.032076   -4.237477 H        1 UNL1     0.0428
     85 H         7.785543   1.380625   -4.657143 H        1 UNL1     0.0428
     86 H         6.506683   1.451216   -2.516025 H        1 UNL1     0.0317
     87 H         5.006312   1.220225   -3.289251 H        1 UNL1     0.0317
     88 H         7.215961   0.892414   -7.425754 H        1 UNL1     0.0429
     89 H         6.861375   -0.595404   -6.544334 H        1 UNL1     0.0429
     90 H         4.314286   0.28755   -7.352641 H        1 UNL1     0.0308
     91 H         6.30082   0.895633   -9.619517 H        1 UNL1     0.0233
     92 H         4.528582   0.816244   -9.787935 H        1 UNL1     0.0233
     93 H         5.267719   2.079183   -8.827067 H        1 UNL1     0.0233
     94 H         4.543368   -1.512793   -9.110632 H        1 UNL1     0.0233
     95 H         6.225314   -1.690545   -8.587383 H        1 UNL1     0.0233
     96 H         4.900885   -2.001431   -7.441421 H        1 UNL1     0.0233
     97 H         4.113424   10.530674   -0.130863 H        1 UNL1     0.0280
     98 H         5.720365   11.150212   -0.397511 H        1 UNL1     0.0280
     99 H         4.536524   11.148189   -1.738498 H        1 UNL1     0.0280
     100 H         6.645224   10.738864   -3.0513 H        1 UNL1     0.2922
     101 H         4.711163   0.908755   2.408278 H        1 UNL1     0.0236
     102 H         6.036725   2.13586   2.464489 H        1 UNL1     0.0236
     103 H         6.321718   0.522946   1.887614 H        1 UNL1     0.0236
     104 H         4.335668   -0.55018   1.249812 H        1 UNL1     0.2098
     105 H         0.70043   1.282971   -0.934972 H        1 UNL1     0.0234
     106 H         1.285586   -0.402666   -1.020506 H        1 UNL1     0.0234
     107 H         0.0   -0.0   0.0 H        1 UNL1     0.0234
     108 H         1.217411   3.259687   1.733421 H        1 UNL1     0.2098
     109 H         1.068877   3.062395   -0.859536 H        1 UNL1     0.0234
     110 H         -0.188324   2.325404   -1.903132 H        1 UNL1     0.0234
     111 H         0.046209   4.038221   -1.893396 H        1 UNL1     0.0234
     112 H         -3.579428   -1.518208   1.481548 H        1 UNL1     0.0342
     113 H         -3.220059   0.120032   2.13367 H        1 UNL1     0.0342
     114 H         -4.42022   -0.089017   0.855436 H        1 UNL1     0.0342
     115 H         -2.640709   1.957218   3.319623 H        1 UNL1     0.0234
     116 H         -1.133726   1.909891   4.240247 H        1 UNL1     0.0234
     117 H         -1.599668   3.299971   3.238138 H        1 UNL1     0.0234
     118 H         0.91946   7.680927   -0.781661 H        1 UNL1     0.0309
     119 H         2.182132   7.792112   -2.047109 H        1 UNL1     0.0309
     120 H         1.434801   6.267017   -1.625517 H        1 UNL1     0.0309
     121 H         -0.279024   6.261402   2.842641 H        1 UNL1     0.0524
     122 H         -2.017324   6.078578   2.574787 H        1 UNL1     0.0524
     123 H         -1.262118   5.328026   4.0031 H        1 UNL1     0.0524
@<TRIPOS>BOND
     1     1     2    1
     2     1    42    1
     3     2     3    2
     4     3     4    1
     5     4     5    2
     6     5     7    1
     7     6    75    1
     8     6    76    1
     9     6    77    1
    10     7     9   am
    11     9    10    1
    12    10    11    2
    13    10    43    1
    14    11    14    1
    15    11    15    1
    16    12    13   ar
    17    12    27   ar
    18    12    43    1
    19    13    14    1
    20    13    30   ar
    21    14    17    2
    22    15    16    1
    23    16    17    1
    24    16    18    1
    25    16    22    1
    26    18    19    1
    27    19    20    1
    28    20    21    1
    29    21    22    1
    30    23    24    1
    31    23    88    1
    32    23    89    1
    33    24    25    1
    34    24    26    1
    35    24    90    1
    36    25    91    1
    37    25    92    1
    38    25    93    1
    39    26    94    1
    40    26    95    1
    41    26    96    1
    42    27    28   ar
    43    28    29   ar
    44    29    30   ar
    45    29    31    1
    46    30    33    1
    47    31    32    1
    48    32    33    1
    49    32    35    1
    50    34    97    1
    51    34    98    1
    52    34    99    1
    53    35    61    1
    54    36    37    1
    55    36    60    1
    56    37    38    1
    57    38    39    1
    58    39    40    1
    59    40    41    1
    60    41    42    1
    61    45   100    1
    62    47   101    1
    63    47   102    1
    64    47   103    1
    65    48   104    1
    66    49   105    1
    67    49   106    1
    68    49   107    1
    69    50   108    1
    70    51    59    1
    71    52   109    1
    72    52   110    1
    73    52   111    1
    74    53    54    1
    75    54    55    2
    76    54    56    1
    77    56   112    1
    78    56   113    1
    79    56   114    1
    80    57   115    1
    81    57   116    1
    82    57   117    1
    83    58   118    1
    84    58   119    1
    85    58   120    1
    86    59   121    1
    87    59   122    1
    88    59   123    1
    89    60    61    2
    90     1    47    1
    91     1    62    1
    92     2    63    1
    93     3    64    1
    94     4    65    1
    95     5     6    1
    96     7     8    2
    97     9    78    1
    98    15    79    1
    99    18    80    1
   100    18    81    1
   101    19    82    1
   102    19    83    1
   103    20    23    1
   104    21    84    1
   105    21    85    1
   106    22    86    1
   107    22    87    1
   108    27    45    1
   109    28    34    1
   110    32    58    1
   111    33    46    2
   112    36    51    1
   113    36    66    1
   114    37    52    1
   115    37    67    1
   116    38    53    1
   117    38    68    1
   118    42    48    1
   119    42    72    1
   120    43    44    2
   121    60    73    1
   122    61    74    1
   123    39    69    1
   124    39    57    1
   125    40    70    1
   126    40    50    1
   127    41    71    1
   128    41    49    1
