@<TRIPOS>MOLECULE
*****
 123 128 0 0 0
SMALL
GASTEIGER

@<TRIPOS>ATOM
     1 C         2.896561   4.07995   -2.176086 C.3        1 UNL1     0.0009
     2 C         2.944696   5.346458   -3.529112 C.2        1 UNL1     -0.0787
     3 C         3.487397   5.824652   -4.783246 C.2        1 UNL1     -0.0649
     4 C         2.983725   7.16068   -5.693026 C.2        1 UNL1     -0.0542
     5 C         2.99805   7.764799   -6.974398 C.2        1 UNL1     0.0115
     6 C         3.627732   7.688806   -8.392512 C.3        1 UNL1     -0.0348
     7 C         1.925527   8.91285   -7.304038 C.2        1 UNL1     0.2441
     8 O         2.205068   10.103806   -7.306272 O.2        1 UNL1     -0.2702
     9 N         0.713308   8.448923   -7.843898 N.am        1 UNL1     -0.2772
     10 C         -0.172412   8.137616   -6.837961 C.2        1 UNL1     0.1049
     11 C         -0.03503   6.943691   -6.290337 C.2        1 UNL1     0.0801
     12 C         -1.171014   9.03357   -4.726706 C.ar        1 UNL1     0.0753
     13 C         -0.809771   7.788566   -4.120013 C.ar        1 UNL1     0.0305
     14 C         -0.348566   6.654234   -4.91728 C.2        1 UNL1     0.0924
     15 N         0.695826   5.888903   -6.690085 N.pl3        1 UNL1     -0.3170
     16 C         0.363028   4.776404   -5.84047 C.3        1 UNL1     0.1275
     17 N         -0.068923   5.409751   -4.540465 N.2        1 UNL1     -0.2557
     18 C         -0.882777   4.117756   -6.425154 C.3        1 UNL1     0.0016
     19 C         -0.600746   3.741198   -7.870925 C.3        1 UNL1     0.0026
     20 N         0.536941   2.832581   -7.904249 N.3        1 UNL1     -0.3018
     21 C         1.76773   3.355244   -7.307297 C.3        1 UNL1     0.0026
     22 C         1.462643   3.722739   -5.854106 C.3        1 UNL1     0.0016
     23 C         0.701438   2.181756   -9.188776 C.3        1 UNL1     0.0012
     24 C         0.003397   0.812639   -9.192216 C.3        1 UNL1     -0.0339
     25 C         -1.350522   0.873517   -9.918338 C.3        1 UNL1     -0.0615
     26 C         0.917516   -0.236455   -9.800959 C.3        1 UNL1     -0.0615
     27 C         -1.723426   10.06877   -3.97616 C.ar        1 UNL1     0.1347
     28 C         -1.997316   9.962531   -2.624217 C.ar        1 UNL1     0.0342
     29 C         -1.588276   8.745641   -2.038529 C.ar        1 UNL1     0.1435
     30 C         -1.000535   7.713358   -2.770767 C.ar        1 UNL1     0.0774
     31 O         -1.884843   8.44653   -0.754946 O.3        1 UNL1     -0.4436
     32 C         -1.74821   7.019757   -0.674173 C.3        1 UNL1     0.3143
     33 C         -0.81681   6.646086   -1.809548 C.2        1 UNL1     0.2504
     34 C         -2.813304   10.928698   -1.811331 C.3        1 UNL1     -0.0327
     35 O         -1.056955   6.726444   0.546231 O.2        1 UNL1     -0.4528
     36 C         -2.308977   3.32009   1.658563 C.3        1 UNL1     0.0854
     37 C         -2.278843   1.946105   0.884754 C.3        1 UNL1     0.0236
     38 C         -1.563659   0.744134   1.669305 C.3        1 UNL1     0.1131
     39 C         -0.120461   0.95502   2.281659 C.3        1 UNL1     0.0200
     40 C         1.063358   1.737333   1.404734 C.3        1 UNL1     0.0661
     41 C         1.504447   1.393387   -0.19675 C.3        1 UNL1     0.0091
     42 C         2.122976   2.498257   -1.524186 C.3        1 UNL1     0.0661
     43 C         -1.020917   9.154016   -6.198176 C.2        1 UNL1     0.2131
     44 O         -1.630279   9.96413   -6.87281 O.2        1 UNL1     -0.2851
     45 O         -2.004502   11.26414   -4.634585 O.3        1 UNL1     -0.5056
     46 O         -0.073805   5.693746   -1.892289 O.2        1 UNL1     -0.2836
     47 C         4.140381   4.223722   -1.258359 C.3        1 UNL1     -0.0566
     48 O         3.236854   1.598803   -1.910675 O.3        1 UNL1     -0.3909
     49 C         0.444175   0.510318   -0.816029 C.3        1 UNL1     -0.0577
     50 O         0.986297   3.13576   1.594964 O.3        1 UNL1     -0.3910
     51 O         -1.56091   3.371313   2.852382 O.3        1 UNL1     -0.3753
     52 C         -2.109757   2.149843   -0.656301 C.3        1 UNL1     -0.0564
     53 O         -1.850816   -0.608593   1.086214 O.3        1 UNL1     -0.4608
     54 C         -0.956613   -1.643445   1.000124 C.2        1 UNL1     0.3042
     55 O         0.247265   -1.571931   0.756399 O.2        1 UNL1     -0.2512
     56 C         -1.559767   -2.986018   1.300815 C.3        1 UNL1     0.0332
     57 C         -0.303076   1.3635   3.817228 C.3        1 UNL1     -0.0567
     58 C         -3.148125   6.429267   -0.962426 C.3        1 UNL1     0.0210
     59 C         -2.340045   3.391695   4.047538 C.3        1 UNL1     0.0372
     60 C         -1.910698   4.50533   0.851258 C.2        1 UNL1     -0.0208
     61 C         -1.103884   5.524055   1.151249 C.2        1 UNL1     0.0882
     62 H         2.088577   4.647923   -1.699347 H        1 UNL1     0.0365
     63 H         2.244226   6.087835   -3.139019 H        1 UNL1     0.0576
     64 H         4.204293   5.234762   -5.358744 H        1 UNL1     0.0615
     65 H         2.341527   7.717278   -5.005085 H        1 UNL1     0.0622
     66 H         -3.367659   3.470576   1.912714 H        1 UNL1     0.0645
     67 H         -3.331585   1.614009   0.887012 H        1 UNL1     0.0362
     68 H         -2.238697   0.661995   2.53481 H        1 UNL1     0.0741
     69 H         0.323573   -0.013782   2.467845 H        1 UNL1     0.0359
     70 H         1.959389   1.42932   1.976849 H        1 UNL1     0.0600
     71 H         2.318872   0.663603   -0.020439 H        1 UNL1     0.0348
     72 H         2.294318   3.034077   -0.579276 H        1 UNL1     0.0602
     73 H         -2.482291   4.526719   -0.04321 H        1 UNL1     0.0628
     74 H         -0.442199   5.552187   2.017631 H        1 UNL1     0.1022
     75 H         2.831768   7.695357   -9.175731 H        1 UNL1     0.0279
     76 H         4.25588   8.525509   -8.689879 H        1 UNL1     0.0279
     77 H         4.117485   6.723841   -8.5892 H        1 UNL1     0.0279
     78 H         0.88013   7.599254   -8.378976 H        1 UNL1     0.1553
     79 H         1.044147   5.774535   -7.624175 H        1 UNL1     0.1484
     80 H         -1.136805   3.236394   -5.823959 H        1 UNL1     0.0317
     81 H         -1.743866   4.792519   -6.371568 H        1 UNL1     0.0317
     82 H         -0.416977   4.628601   -8.494349 H        1 UNL1     0.0428
     83 H         -1.502493   3.274877   -8.268979 H        1 UNL1     0.0428
     84 H         2.582874   2.62573   -7.273226 H        1 UNL1     0.0428
     85 H         2.181444   4.190618   -7.88894 H        1 UNL1     0.0428
     86 H         2.409866   3.973751   -5.413936 H        1 UNL1     0.0317
     87 H         1.153507   2.828937   -5.298543 H        1 UNL1     0.0317
     88 H         0.233821   2.814387   -9.954549 H        1 UNL1     0.0429
     89 H         1.762127   2.086115   -9.454416 H        1 UNL1     0.0429
     90 H         -0.169482   0.495004   -8.157114 H        1 UNL1     0.0308
     91 H         -1.815872   -0.115048   -9.975715 H        1 UNL1     0.0233
     92 H         -2.030735   1.561161   -9.410338 H        1 UNL1     0.0233
     93 H         -1.25638   1.241016   -10.947375 H        1 UNL1     0.0233
     94 H         0.332673   -0.95081   -10.390443 H        1 UNL1     0.0233
     95 H         1.640283   0.24011   -10.469133 H        1 UNL1     0.0233
     96 H         1.461008   -0.7885   -9.029058 H        1 UNL1     0.0233
     97 H         -3.66961   10.448785   -1.346946 H        1 UNL1     0.0280
     98 H         -2.23429   11.370485   -0.989855 H        1 UNL1     0.0280
     99 H         -3.181818   11.738859   -2.461664 H        1 UNL1     0.0280
     100 H         -1.298531   11.596861   -5.160441 H        1 UNL1     0.2922
     101 H         3.990533   3.650706   -0.343562 H        1 UNL1     0.0236
     102 H         4.403898   5.260697   -1.052871 H        1 UNL1     0.0236
     103 H         5.044943   3.789244   -1.715732 H        1 UNL1     0.0236
     104 H         3.598582   1.20832   -1.091134 H        1 UNL1     0.2098
     105 H         -0.341577   1.050619   -1.338026 H        1 UNL1     0.0234
     106 H         0.830167   -0.2937   -1.442521 H        1 UNL1     0.0234
     107 H         0.0   -0.0   0.0 H        1 UNL1     0.0234
     108 H         1.441045   3.33978   2.434814 H        1 UNL1     0.2098
     109 H         -2.93576   2.728806   -1.092458 H        1 UNL1     0.0234
     110 H         -1.154751   2.612911   -0.926997 H        1 UNL1     0.0234
     111 H         -2.102568   1.191708   -1.192838 H        1 UNL1     0.0234
     112 H         -0.798791   -3.766208   1.203012 H        1 UNL1     0.0342
     113 H         -2.02472   -3.014934   2.285104 H        1 UNL1     0.0342
     114 H         -2.343274   -3.184602   0.556606 H        1 UNL1     0.0342
     115 H         0.516635   0.98209   4.441557 H        1 UNL1     0.0234
     116 H         -0.370165   2.440218   3.985233 H        1 UNL1     0.0234
     117 H         -1.175718   0.888785   4.297939 H        1 UNL1     0.0234
     118 H         -3.599812   5.975271   -0.063053 H        1 UNL1     0.0309
     119 H         -3.845042   7.161405   -1.382526 H        1 UNL1     0.0309
     120 H         -3.115124   5.598205   -1.675414 H        1 UNL1     0.0309
     121 H         -1.937318   2.631782   4.716642 H        1 UNL1     0.0524
     122 H         -2.278732   4.360632   4.570452 H        1 UNL1     0.0524
     123 H         -3.380917   3.17837   3.821327 H        1 UNL1     0.0524
@<TRIPOS>BOND
     1     1     2    1
     2     1    42    1
     3     2     3    2
     4     3     4    1
     5     4     5    2
     6     5     7    1
     7     6    75    1
     8     6    76    1
     9     6    77    1
    10     7     9   am
    11     9    10    1
    12    10    11    2
    13    10    43    1
    14    11    14    1
    15    11    15    1
    16    12    13   ar
    17    12    27   ar
    18    12    43    1
    19    13    14    1
    20    13    30   ar
    21    14    17    2
    22    15    16    1
    23    16    17    1
    24    16    18    1
    25    16    22    1
    26    18    19    1
    27    19    20    1
    28    20    21    1
    29    21    22    1
    30    23    24    1
    31    23    88    1
    32    23    89    1
    33    24    25    1
    34    24    26    1
    35    24    90    1
    36    25    91    1
    37    25    92    1
    38    25    93    1
    39    26    94    1
    40    26    95    1
    41    26    96    1
    42    27    28   ar
    43    28    29   ar
    44    29    30   ar
    45    29    31    1
    46    30    33    1
    47    31    32    1
    48    32    33    1
    49    32    35    1
    50    34    97    1
    51    34    98    1
    52    34    99    1
    53    35    61    1
    54    36    37    1
    55    36    60    1
    56    37    38    1
    57    38    39    1
    58    39    40    1
    59    40    41    1
    60    41    42    1
    61    45   100    1
    62    47   101    1
    63    47   102    1
    64    47   103    1
    65    48   104    1
    66    49   105    1
    67    49   106    1
    68    49   107    1
    69    50   108    1
    70    51    59    1
    71    52   109    1
    72    52   110    1
    73    52   111    1
    74    53    54    1
    75    54    55    2
    76    54    56    1
    77    56   112    1
    78    56   113    1
    79    56   114    1
    80    57   115    1
    81    57   116    1
    82    57   117    1
    83    58   118    1
    84    58   119    1
    85    58   120    1
    86    59   121    1
    87    59   122    1
    88    59   123    1
    89    60    61    2
    90     1    47    1
    91     1    62    1
    92     2    63    1
    93     3    64    1
    94     4    65    1
    95     5     6    1
    96     7     8    2
    97     9    78    1
    98    15    79    1
    99    18    80    1
   100    18    81    1
   101    19    82    1
   102    19    83    1
   103    20    23    1
   104    21    84    1
   105    21    85    1
   106    22    86    1
   107    22    87    1
   108    27    45    1
   109    28    34    1
   110    32    58    1
   111    33    46    2
   112    36    51    1
   113    36    66    1
   114    37    52    1
   115    37    67    1
   116    38    53    1
   117    38    68    1
   118    42    48    1
   119    42    72    1
   120    43    44    2
   121    60    73    1
   122    61    74    1
   123    39    69    1
   124    39    57    1
   125    40    70    1
   126    40    50    1
   127    41    71    1
   128    41    49    1
