@<TRIPOS>MOLECULE
*****
 123 128 0 0 0
SMALL
GASTEIGER

@<TRIPOS>ATOM
     1 C         4.752242   2.384734   1.314727 C.3        1 UNL1     0.0009
     2 C         6.158797   3.437255   0.722409 C.2        1 UNL1     -0.0787
     3 C         7.518439   3.561684   0.24081 C.2        1 UNL1     -0.0649
     4 C         8.302524   4.956077   -0.313479 C.2        1 UNL1     -0.0542
     5 C         9.385635   5.451874   -1.080378 C.2        1 UNL1     0.0115
     6 C         10.696554   5.04953   -1.8104 C.3        1 UNL1     -0.0348
     7 C         9.347354   6.975463   -1.584563 C.2        1 UNL1     0.2441
     8 O         9.987652   7.869832   -1.049168 O.2        1 UNL1     -0.2702
     9 N         8.737343   7.166376   -2.836597 N.am        1 UNL1     -0.2772
     10 C         7.382311   7.353084   -2.687093 C.2        1 UNL1     0.1049
     11 C         6.653081   6.258   -2.572035 C.2        1 UNL1     0.0801
     12 C         5.691674   8.661669   -1.38837 C.ar        1 UNL1     0.0753
     13 C         5.049254   7.412005   -1.115892 C.ar        1 UNL1     0.0305
     14 C         5.436489   6.185419   -1.809137 C.2        1 UNL1     0.0924
     15 N         6.984674   4.973022   -2.78512 N.pl3        1 UNL1     -0.3170
     16 C         5.783298   4.187237   -2.687704 C.3        1 UNL1     0.1275
     17 N         4.892342   4.972946   -1.756801 N.2        1 UNL1     -0.2557
     18 C         5.106147   4.225149   -4.054354 C.3        1 UNL1     0.0016
     19 C         6.094234   3.734322   -5.100471 C.3        1 UNL1     0.0026
     20 N         6.505204   2.380077   -4.756738 N.3        1 UNL1     -0.3018
     21 C         7.112319   2.231844   -3.432424 C.3        1 UNL1     0.0026
     22 C         6.100917   2.726388   -2.396863 C.3        1 UNL1     0.0016
     23 C         7.205762   1.712364   -5.835636 C.3        1 UNL1     0.0012
     24 C         6.238617   1.383853   -6.983881 C.3        1 UNL1     -0.0339
     25 C         6.274733   2.465195   -8.076332 C.3        1 UNL1     -0.0615
     26 C         6.548552   0.008342   -7.548408 C.3        1 UNL1     -0.0615
     27 C         5.237878   9.846793   -0.814202 C.ar        1 UNL1     0.1347
     28 C         4.131257   9.913128   0.01347 C.ar        1 UNL1     0.0342
     29 C         3.544444   8.663758   0.306536 C.ar        1 UNL1     0.1435
     30 C         4.010252   7.463912   -0.232549 C.ar        1 UNL1     0.0774
     31 O         2.39393   8.572885   1.008724 O.3        1 UNL1     -0.4436
     32 C         1.881457   7.268408   0.697942 C.3        1 UNL1     0.3143
     33 C         3.088039   6.462543   0.26096 C.2        1 UNL1     0.2504
     34 C         3.438992   11.170368   0.460927 C.3        1 UNL1     -0.0327
     35 O         1.415544   6.690647   1.923654 O.2        1 UNL1     -0.4528
     36 C         -1.435903   4.375769   0.965177 C.3        1 UNL1     0.0854
     37 C         -1.435799   3.15585   -0.034483 C.3        1 UNL1     0.0236
     38 C         -1.948902   1.77059   0.589634 C.3        1 UNL1     0.1131
     39 C         -1.33386   1.246552   1.949553 C.3        1 UNL1     0.0200
     40 C         0.310742   1.322512   2.21779 C.3        1 UNL1     0.0661
     41 C         1.516841   0.778359   1.156266 C.3        1 UNL1     0.0091
     42 C         3.214552   1.407619   0.86095 C.3        1 UNL1     0.0661
     43 C         6.80196   8.667196   -2.372999 C.2        1 UNL1     0.2131
     44 O         7.160988   9.661704   -2.976977 O.2        1 UNL1     -0.2851
     45 O         5.947227   11.012699   -1.095138 O.3        1 UNL1     -0.5056
     46 O         3.258619   5.265671   0.326171 O.2        1 UNL1     -0.2836
     47 C         5.011547   1.906603   2.768733 C.3        1 UNL1     -0.0566
     48 O         3.845595   0.067301   0.927646 O.3        1 UNL1     -0.3909
     49 C         0.896579   0.528786   -0.200378 C.3        1 UNL1     -0.0577
     50 O         0.672949   2.577283   2.758233 O.3        1 UNL1     -0.3910
     51 O         -1.715149   4.068267   2.312358 O.3        1 UNL1     -0.3753
     52 C         -0.235488   3.223054   -1.034326 C.3        1 UNL1     -0.0564
     53 O         -2.271768   0.729945   -0.442424 O.3        1 UNL1     -0.4608
     54 C         -2.346815   -0.619293   -0.21471 C.2        1 UNL1     0.3042
     55 O         -1.584106   -1.490503   -0.630771 O.2        1 UNL1     -0.2512
     56 C         -3.474189   -1.013621   0.696469 C.3        1 UNL1     0.0332
     57 C         -2.304178   1.717163   3.130731 C.3        1 UNL1     -0.0567
     58 C         0.935773   7.446951   -0.512567 C.3        1 UNL1     0.0210
     59 C         -2.318233   5.126133   3.056048 C.3        1 UNL1     0.0372
     60 C         -0.191898   5.19283   0.960357 C.2        1 UNL1     -0.0208
     61 C         0.525784   5.68076   1.973077 C.2        1 UNL1     0.0882
     62 H         4.133036   3.286936   1.387712 H        1 UNL1     0.0365
     63 H         5.732871   4.435046   0.846789 H        1 UNL1     0.0576
     64 H         8.135008   2.684093   0.033967 H        1 UNL1     0.0615
     65 H         7.647764   5.769528   0.010664 H        1 UNL1     0.0622
     66 H         -2.231898   5.036633   0.5941 H        1 UNL1     0.0645
     67 H         -2.247836   3.390882   -0.744353 H        1 UNL1     0.0362
     68 H         -2.986968   2.049111   0.827051 H        1 UNL1     0.0741
     69 H         -1.540232   0.18842   2.03997 H        1 UNL1     0.0359
     70 H         0.397911   0.619492   3.068217 H        1 UNL1     0.0600
     71 H         1.649067   -0.256612   1.528164 H        1 UNL1     0.0348
     72 H         2.910801   1.803034   1.841102 H        1 UNL1     0.0602
     73 H         0.033081   5.4806   -0.036549 H        1 UNL1     0.0628
     74 H         0.396727   5.390722   3.016369 H        1 UNL1     0.1022
     75 H         10.878058   3.95192   -1.713743 H        1 UNL1     0.0279
     76 H         10.716417   5.196257   -2.887965 H        1 UNL1     0.0279
     77 H         11.595334   5.461179   -1.32828 H        1 UNL1     0.0279
     78 H         8.8707   6.337405   -3.41201 H        1 UNL1     0.1553
     79 H         7.780348   4.685221   -3.324569 H        1 UNL1     0.1484
     80 H         4.207851   3.596645   -4.025828 H        1 UNL1     0.0317
     81 H         4.771487   5.239382   -4.297225 H        1 UNL1     0.0317
     82 H         6.963871   4.402611   -5.18434 H        1 UNL1     0.0428
     83 H         5.591574   3.771226   -6.067436 H        1 UNL1     0.0428
     84 H         7.338556   1.194392   -3.167243 H        1 UNL1     0.0428
     85 H         8.083704   2.741419   -3.368699 H        1 UNL1     0.0428
     86 H         6.52271   2.480774   -1.439914 H        1 UNL1     0.0317
     87 H         5.192068   2.11372   -2.43842 H        1 UNL1     0.0317
     88 H         7.978958   2.393725   -6.214067 H        1 UNL1     0.0429
     89 H         7.718817   0.809728   -5.47955 H        1 UNL1     0.0429
     90 H         5.218218   1.321952   -6.587438 H        1 UNL1     0.0308
     91 H         7.283872   2.588451   -8.480743 H        1 UNL1     0.0233
     92 H         5.590263   2.215009   -8.890284 H        1 UNL1     0.0233
     93 H         5.959637   3.447005   -7.702701 H        1 UNL1     0.0233
     94 H         5.99512   -0.151005   -8.480157 H        1 UNL1     0.0233
     95 H         7.615964   -0.071775   -7.772404 H        1 UNL1     0.0233
     96 H         6.275235   -0.782742   -6.844524 H        1 UNL1     0.0233
     97 H         2.569839   10.959774   1.076925 H        1 UNL1     0.0280
     98 H         4.092306   11.807857   1.070881 H        1 UNL1     0.0280
     99 H         3.107168   11.742745   -0.420761 H        1 UNL1     0.0280
     100 H         5.424686   11.715543   -1.439499 H        1 UNL1     0.2922
     101 H         4.160347   1.324812   3.121767 H        1 UNL1     0.0236
     102 H         5.26155   2.719867   3.449236 H        1 UNL1     0.0236
     103 H         5.868275   1.214957   2.830667 H        1 UNL1     0.0236
     104 H         4.159146   -0.065836   1.843578 H        1 UNL1     0.2098
     105 H         0.635476   1.431065   -0.747671 H        1 UNL1     0.0234
     106 H         1.458731   -0.151604   -0.839894 H        1 UNL1     0.0234
     107 H         0.0   -0.0   0.0 H        1 UNL1     0.0234
     108 H         0.47343   3.252956   2.081899 H        1 UNL1     0.2098
     109 H         0.735413   3.220145   -0.51949 H        1 UNL1     0.0234
     110 H         -0.254904   2.425046   -1.784359 H        1 UNL1     0.0234
     111 H         -0.25441   4.146778   -1.627893 H        1 UNL1     0.0234
     112 H         -3.474426   -2.09836   0.840303 H        1 UNL1     0.0342
     113 H         -3.429936   -0.492829   1.651802 H        1 UNL1     0.0342
     114 H         -4.420371   -0.738106   0.210675 H        1 UNL1     0.0342
     115 H         -3.316343   1.305299   3.016367 H        1 UNL1     0.0234
     116 H         -1.951359   1.448986   4.128554 H        1 UNL1     0.0234
     117 H         -2.512956   2.800812   3.123157 H        1 UNL1     0.0234
     118 H         -0.07238   7.776583   -0.20601 H        1 UNL1     0.0309
     119 H         1.326197   8.140411   -1.264156 H        1 UNL1     0.0309
     120 H         0.744462   6.505468   -1.038984 H        1 UNL1     0.0309
     121 H         -1.614842   5.95813   3.075517 H        1 UNL1     0.0524
     122 H         -3.248621   5.488878   2.588253 H        1 UNL1     0.0524
     123 H         -2.53742   4.79685   4.067791 H        1 UNL1     0.0524
@<TRIPOS>BOND
     1     1     2    1
     2     1    42    1
     3     2     3    2
     4     3     4    1
     5     4     5    2
     6     5     7    1
     7     6    75    1
     8     6    76    1
     9     6    77    1
    10     7     9   am
    11     9    10    1
    12    10    11    2
    13    10    43    1
    14    11    14    1
    15    11    15    1
    16    12    13   ar
    17    12    27   ar
    18    12    43    1
    19    13    14    1
    20    13    30   ar
    21    14    17    2
    22    15    16    1
    23    16    17    1
    24    16    18    1
    25    16    22    1
    26    18    19    1
    27    19    20    1
    28    20    21    1
    29    21    22    1
    30    23    24    1
    31    23    88    1
    32    23    89    1
    33    24    25    1
    34    24    26    1
    35    24    90    1
    36    25    91    1
    37    25    92    1
    38    25    93    1
    39    26    94    1
    40    26    95    1
    41    26    96    1
    42    27    28   ar
    43    28    29   ar
    44    29    30   ar
    45    29    31    1
    46    30    33    1
    47    31    32    1
    48    32    33    1
    49    32    35    1
    50    34    97    1
    51    34    98    1
    52    34    99    1
    53    35    61    1
    54    36    37    1
    55    36    60    1
    56    37    38    1
    57    38    39    1
    58    39    40    1
    59    40    41    1
    60    41    42    1
    61    45   100    1
    62    47   101    1
    63    47   102    1
    64    47   103    1
    65    48   104    1
    66    49   105    1
    67    49   106    1
    68    49   107    1
    69    50   108    1
    70    51    59    1
    71    52   109    1
    72    52   110    1
    73    52   111    1
    74    53    54    1
    75    54    55    2
    76    54    56    1
    77    56   112    1
    78    56   113    1
    79    56   114    1
    80    57   115    1
    81    57   116    1
    82    57   117    1
    83    58   118    1
    84    58   119    1
    85    58   120    1
    86    59   121    1
    87    59   122    1
    88    59   123    1
    89    60    61    2
    90     1    47    1
    91     1    62    1
    92     2    63    1
    93     3    64    1
    94     4    65    1
    95     5     6    1
    96     7     8    2
    97     9    78    1
    98    15    79    1
    99    18    80    1
   100    18    81    1
   101    19    82    1
   102    19    83    1
   103    20    23    1
   104    21    84    1
   105    21    85    1
   106    22    86    1
   107    22    87    1
   108    27    45    1
   109    28    34    1
   110    32    58    1
   111    33    46    2
   112    36    51    1
   113    36    66    1
   114    37    52    1
   115    37    67    1
   116    38    53    1
   117    38    68    1
   118    42    48    1
   119    42    72    1
   120    43    44    2
   121    60    73    1
   122    61    74    1
   123    39    69    1
   124    39    57    1
   125    40    70    1
   126    40    50    1
   127    41    71    1
   128    41    49    1
