@<TRIPOS>MOLECULE
*****
 123 128 0 0 0
SMALL
GASTEIGER

@<TRIPOS>ATOM
     1 C         3.994049   0.341171   1.379195 C.3        1 UNL1     0.0009
     2 C         4.717125   1.686803   2.429658 C.2        1 UNL1     -0.0787
     3 C         5.541545   2.869292   2.56419 C.2        1 UNL1     -0.0649
     4 C         5.750076   3.842083   3.934063 C.2        1 UNL1     -0.0542
     5 C         6.155104   5.116296   4.402478 C.2        1 UNL1     0.0115
     6 C         6.84107   6.447385   3.988989 C.3        1 UNL1     -0.0348
     7 C         5.710299   5.580715   5.873346 C.2        1 UNL1     0.2441
     8 O         6.4655   5.55702   6.835446 O.2        1 UNL1     -0.2702
     9 N         4.480877   6.260037   5.929869 N.am        1 UNL1     -0.2772
     10 C         3.444784   5.366477   6.076101 C.2        1 UNL1     0.1049
     11 C         3.005326   4.798386   4.967782 C.2        1 UNL1     0.0801
     12 C         2.699377   3.397346   7.42674 C.ar        1 UNL1     0.0753
     13 C         2.433493   2.743229   6.181732 C.ar        1 UNL1     0.0305
     14 C         2.454227   3.471401   4.915088 C.2        1 UNL1     0.0924
     15 N         3.259924   5.099901   3.682949 N.pl3        1 UNL1     -0.3170
     16 C         2.399493   4.289398   2.862583 C.3        1 UNL1     0.1275
     17 N         2.139666   3.055337   3.691622 N.2        1 UNL1     -0.2557
     18 C         1.062328   5.015988   2.754151 C.3        1 UNL1     0.0016
     19 C         1.311329   6.414558   2.212312 C.3        1 UNL1     0.0026
     20 N         1.95473   6.304143   0.910439 N.3        1 UNL1     -0.3018
     21 C         3.219595   5.566292   0.902624 C.3        1 UNL1     0.0026
     22 C         2.94522   4.163082   1.44633 C.3        1 UNL1     0.0016
     23 C         1.964816   7.555047   0.178469 C.3        1 UNL1     0.0012
     24 C         0.55237   7.898724   -0.320168 C.3        1 UNL1     -0.0339
     25 C         0.202445   9.370888   -0.047506 C.3        1 UNL1     -0.0615
     26 C         0.423106   7.557223   -1.79443 C.3        1 UNL1     -0.0615
     27 C         2.559646   2.725917   8.639084 C.ar        1 UNL1     0.1347
     28 C         2.123923   1.416311   8.734622 C.ar        1 UNL1     0.0342
     29 C         1.91518   0.777454   7.493876 C.ar        1 UNL1     0.1435
     30 C         2.085984   1.426458   6.270422 C.ar        1 UNL1     0.0774
     31 O         1.384824   -0.46283   7.420222 O.3        1 UNL1     -0.4436
     32 C         0.896113   -0.56895   6.074573 C.3        1 UNL1     0.3143
     33 C         1.697614   0.443049   5.281057 C.2        1 UNL1     0.2504
     34 C         1.711148   0.714398   9.998361 C.3        1 UNL1     -0.0327
     35 O         1.263966   -1.86586   5.588814 O.2        1 UNL1     -0.4528
     36 C         -1.421334   -2.841217   3.089628 C.3        1 UNL1     0.0854
     37 C         -1.89235   -2.085818   1.787691 C.3        1 UNL1     0.0236
     38 C         -1.840495   -2.958976   0.443574 C.3        1 UNL1     0.1131
     39 C         -0.517891   -3.739846   0.065117 C.3        1 UNL1     0.0200
     40 C         0.971791   -3.007263   0.228234 C.3        1 UNL1     0.0661
     41 C         1.394348   -1.47313   -0.359553 C.3        1 UNL1     0.0091
     42 C         2.559714   -0.222901   0.30697 C.3        1 UNL1     0.0661
     43 C         3.042456   4.840655   7.389112 C.2        1 UNL1     0.2131
     44 O         2.908476   5.589325   8.340049 O.2        1 UNL1     -0.2851
     45 O         2.882224   3.421369   9.802582 O.3        1 UNL1     -0.5056
     46 O         1.972605   0.429096   4.102058 O.2        1 UNL1     -0.2836
     47 C         5.076252   -0.719175   1.04084 C.3        1 UNL1     -0.0566
     48 O         3.223261   0.02019   -0.996767 O.3        1 UNL1     -0.3909
     49 C         0.132994   -0.736105   -0.751054 C.3        1 UNL1     -0.0577
     50 O         1.473205   -3.177539   1.538697 O.3        1 UNL1     -0.3910
     51 O         -0.853887   -4.116326   2.890795 O.3        1 UNL1     -0.3753
     52 C         -1.489549   -0.57518   1.813625 C.3        1 UNL1     -0.0564
     53 O         -2.608441   -2.354407   -0.695321 O.3        1 UNL1     -0.4608
     54 C         -2.240034   -2.397803   -2.014534 C.2        1 UNL1     0.3042
     55 O         -2.09431   -1.446392   -2.780967 O.2        1 UNL1     -0.2512
     56 C         -1.940245   -3.783955   -2.509935 C.3        1 UNL1     0.0332
     57 C         -0.673515   -5.239357   0.599365 C.3        1 UNL1     -0.0567
     58 C         -0.582585   -0.117538   6.109364 C.3        1 UNL1     0.0210
     59 C         -0.615626   -4.859266   4.085423 C.3        1 UNL1     0.0372
     60 C         -0.475744   -2.080147   3.950901 C.2        1 UNL1     -0.0208
     61 C         0.648928   -2.468704   4.553297 C.2        1 UNL1     0.0882
     62 H         3.456056   -0.030664   2.259543 H        1 UNL1     0.0365
     63 H         4.358435   1.38913   3.417181 H        1 UNL1     0.0576
     64 H         5.99884   3.350024   1.6965 H        1 UNL1     0.0615
     65 H         5.333932   3.240487   4.746707 H        1 UNL1     0.0622
     66 H         -2.337646   -2.964563   3.683938 H        1 UNL1     0.0645
     67 H         -2.980399   -1.96303   1.927805 H        1 UNL1     0.0362
     68 H         -2.575126   -3.737082   0.701238 H        1 UNL1     0.0741
     69 H         -0.547632   -3.984727   -0.988238 H        1 UNL1     0.0359
     70 H         1.586932   -3.685493   -0.393589 H        1 UNL1     0.0600
     71 H         1.800029   -1.751391   -1.352 H        1 UNL1     0.0348
     72 H         2.83952   -1.178031   0.774679 H        1 UNL1     0.0602
     73 H         -0.885634   -1.123036   4.158693 H        1 UNL1     0.0628
     74 H         1.163829   -3.408496   4.351047 H        1 UNL1     0.1022
     75 H         6.07616   7.218322   3.728985 H        1 UNL1     0.0279
     76 H         7.428208   6.948951   4.754998 H        1 UNL1     0.0279
     77 H         7.395316   6.364105   3.04264 H        1 UNL1     0.0279
     78 H         4.329004   6.765407   5.059459 H        1 UNL1     0.1553
     79 H         3.624781   5.984274   3.380136 H        1 UNL1     0.1484
     80 H         0.397002   4.444088   2.096094 H        1 UNL1     0.0317
     81 H         0.566852   5.071318   3.729391 H        1 UNL1     0.0317
     82 H         1.918349   7.017056   2.904003 H        1 UNL1     0.0428
     83 H         0.345175   6.915582   2.144708 H        1 UNL1     0.0428
     84 H         3.641222   5.42914   -0.097992 H        1 UNL1     0.0428
     85 H         4.007107   6.099182   1.453232 H        1 UNL1     0.0428
     86 H         3.856802   3.613335   1.302161 H        1 UNL1     0.0317
     87 H         2.229913   3.643056   0.79748 H        1 UNL1     0.0317
     88 H         2.296816   8.3478   0.861561 H        1 UNL1     0.0429
     89 H         2.681658   7.525218   -0.652206 H        1 UNL1     0.0429
     90 H         -0.176035   7.264716   0.199133 H        1 UNL1     0.0308
     91 H         1.096115   10.001888   -0.064714 H        1 UNL1     0.0233
     92 H         -0.512348   9.741232   -0.786102 H        1 UNL1     0.0233
     93 H         -0.268876   9.513528   0.932466 H        1 UNL1     0.0233
     94 H         -0.395135   8.12978   -2.244427 H        1 UNL1     0.0233
     95 H         1.345841   7.817467   -2.320544 H        1 UNL1     0.0233
     96 H         0.22137   6.492456   -1.9412 H        1 UNL1     0.0233
     97 H         0.688074   0.35374   9.948588 H        1 UNL1     0.0280
     98 H         2.331279   -0.168094   10.203056 H        1 UNL1     0.0280
     99 H         1.791352   1.409839   10.849845 H        1 UNL1     0.0280
     100 H         3.714347   3.860242   9.778422 H        1 UNL1     0.2922
     101 H         5.621494   -0.415858   0.147327 H        1 UNL1     0.0236
     102 H         4.674848   -1.728137   0.952216 H        1 UNL1     0.0236
     103 H         5.845868   -0.791009   1.82743 H        1 UNL1     0.0236
     104 H         2.725891   -0.473925   -1.677534 H        1 UNL1     0.2098
     105 H         0.189671   -0.226771   -1.709792 H        1 UNL1     0.0234
     106 H         -0.778609   -1.330638   -0.692439 H        1 UNL1     0.0234
     107 H         -0.0   0.0   0.0 H        1 UNL1     0.0234
     108 H         2.356463   -2.761863   1.567641 H        1 UNL1     0.2098
     109 H         -2.354805   0.088446   1.677078 H        1 UNL1     0.0234
     110 H         -0.948477   -0.289556   2.722142 H        1 UNL1     0.0234
     111 H         -0.793981   -0.32777   1.000656 H        1 UNL1     0.0234
     112 H         -1.948958   -4.488399   -1.67266 H        1 UNL1     0.0342
     113 H         -2.630399   -4.097667   -3.291673 H        1 UNL1     0.0342
     114 H         -0.928886   -3.783616   -2.939257 H        1 UNL1     0.0342
     115 H         -0.180454   -5.962703   -0.0646 H        1 UNL1     0.0234
     116 H         -0.27922   -5.395345   1.605471 H        1 UNL1     0.0234
     117 H         -1.713778   -5.607373   0.580418 H        1 UNL1     0.0234
     118 H         -1.07528   -0.235524   5.128376 H        1 UNL1     0.0309
     119 H         -1.172528   -0.636913   6.871216 H        1 UNL1     0.0309
     120 H         -0.690691   0.952213   6.31925 H        1 UNL1     0.0309
     121 H         0.458701   -5.02444   4.16221 H        1 UNL1     0.0524
     122 H         -0.932748   -4.311976   4.98872 H        1 UNL1     0.0524
     123 H         -1.139299   -5.81027   4.047342 H        1 UNL1     0.0524
@<TRIPOS>BOND
     1     1     2    1
     2     1    42    1
     3     2     3    2
     4     3     4    1
     5     4     5    2
     6     5     7    1
     7     6    75    1
     8     6    76    1
     9     6    77    1
    10     7     9   am
    11     9    10    1
    12    10    11    2
    13    10    43    1
    14    11    14    1
    15    11    15    1
    16    12    13   ar
    17    12    27   ar
    18    12    43    1
    19    13    14    1
    20    13    30   ar
    21    14    17    2
    22    15    16    1
    23    16    17    1
    24    16    18    1
    25    16    22    1
    26    18    19    1
    27    19    20    1
    28    20    21    1
    29    21    22    1
    30    23    24    1
    31    23    88    1
    32    23    89    1
    33    24    25    1
    34    24    26    1
    35    24    90    1
    36    25    91    1
    37    25    92    1
    38    25    93    1
    39    26    94    1
    40    26    95    1
    41    26    96    1
    42    27    28   ar
    43    28    29   ar
    44    29    30   ar
    45    29    31    1
    46    30    33    1
    47    31    32    1
    48    32    33    1
    49    32    35    1
    50    34    97    1
    51    34    98    1
    52    34    99    1
    53    35    61    1
    54    36    37    1
    55    36    60    1
    56    37    38    1
    57    38    39    1
    58    39    40    1
    59    40    41    1
    60    41    42    1
    61    45   100    1
    62    47   101    1
    63    47   102    1
    64    47   103    1
    65    48   104    1
    66    49   105    1
    67    49   106    1
    68    49   107    1
    69    50   108    1
    70    51    59    1
    71    52   109    1
    72    52   110    1
    73    52   111    1
    74    53    54    1
    75    54    55    2
    76    54    56    1
    77    56   112    1
    78    56   113    1
    79    56   114    1
    80    57   115    1
    81    57   116    1
    82    57   117    1
    83    58   118    1
    84    58   119    1
    85    58   120    1
    86    59   121    1
    87    59   122    1
    88    59   123    1
    89    60    61    2
    90     1    47    1
    91     1    62    1
    92     2    63    1
    93     3    64    1
    94     4    65    1
    95     5     6    1
    96     7     8    2
    97     9    78    1
    98    15    79    1
    99    18    80    1
   100    18    81    1
   101    19    82    1
   102    19    83    1
   103    20    23    1
   104    21    84    1
   105    21    85    1
   106    22    86    1
   107    22    87    1
   108    27    45    1
   109    28    34    1
   110    32    58    1
   111    33    46    2
   112    36    51    1
   113    36    66    1
   114    37    52    1
   115    37    67    1
   116    38    53    1
   117    38    68    1
   118    42    48    1
   119    42    72    1
   120    43    44    2
   121    60    73    1
   122    61    74    1
   123    39    69    1
   124    39    57    1
   125    40    70    1
   126    40    50    1
   127    41    71    1
   128    41    49    1
