@<TRIPOS>MOLECULE
*****
 123 128 0 0 0
SMALL
GASTEIGER

@<TRIPOS>ATOM
     1 C         -0.204937   1.917236   3.775343 C.3        1 UNL1     0.0009
     2 C         -1.679753   2.069328   4.888366 C.2        1 UNL1     -0.0787
     3 C         -2.749134   2.863959   5.454963 C.2        1 UNL1     -0.0649
     4 C         -4.010885   2.346465   6.458229 C.2        1 UNL1     -0.0542
     5 C         -5.304823   2.651806   6.947688 C.2        1 UNL1     0.0115
     6 C         -6.391486   3.759551   7.021092 C.3        1 UNL1     -0.0348
     7 C         -6.183746   1.479705   7.603936 C.2        1 UNL1     0.2441
     8 O         -6.319355   1.346656   8.81242 O.2        1 UNL1     -0.2702
     9 N         -6.996884   0.775909   6.698601 N.am        1 UNL1     -0.2772
     10 C         -6.30244   -0.276223   6.14716 C.2        1 UNL1     0.1049
     11 C         -5.523931   0.014429   5.120677 C.2        1 UNL1     0.0801
     12 C         -4.853742   -2.226478   6.743075 C.ar        1 UNL1     0.0753
     13 C         -3.936613   -1.747203   5.754248 C.ar        1 UNL1     0.0305
     14 C         -4.304452   -0.685515   4.820136 C.2        1 UNL1     0.0924
     15 N         -5.450078   1.135336   4.382678 N.pl3        1 UNL1     -0.3170
     16 C         -4.564167   0.877023   3.278735 C.3        1 UNL1     0.1275
     17 N         -3.626905   -0.190541   3.788217 N.2        1 UNL1     -0.2557
     18 C         -5.392859   0.2226   2.177508 C.3        1 UNL1     0.0016
     19 C         -6.563388   1.133495   1.843258 C.3        1 UNL1     0.0026
     20 N         -6.043681   2.423624   1.411401 N.3        1 UNL1     -0.3018
     21 C         -5.182793   3.103404   2.381524 C.3        1 UNL1     0.0026
     22 C         -4.011343   2.172515   2.699398 C.3        1 UNL1     0.0016
     23 C         -7.052134   3.258178   0.789159 C.3        1 UNL1     0.0012
     24 C         -7.399307   2.729713   -0.611539 C.3        1 UNL1     -0.0339
     25 C         -7.734851   3.877232   -1.578321 C.3        1 UNL1     -0.0615
     26 C         -6.265219   1.868025   -1.138909 C.3        1 UNL1     -0.0615
     27 C         -4.540511   -3.318477   7.549016 C.ar        1 UNL1     0.1347
     28 C         -3.3622   -4.033964   7.431915 C.ar        1 UNL1     0.0342
     29 C         -2.45395   -3.51407   6.485366 C.ar        1 UNL1     0.1435
     30 C         -2.739087   -2.399174   5.69611 C.ar        1 UNL1     0.0774
     31 O         -1.309666   -4.162385   6.176647 O.3        1 UNL1     -0.4436
     32 C         -0.918474   -3.622256   4.905387 C.3        1 UNL1     0.3143
     33 C         -1.58714   -2.264581   4.829121 C.2        1 UNL1     0.2504
     34 C         -3.065777   -5.356981   8.081421 C.3        1 UNL1     -0.0327
     35 O         0.49436   -3.389092   4.95818 O.2        1 UNL1     -0.4528
     36 C         1.753757   -3.820108   1.403432 C.3        1 UNL1     0.0854
     37 C         1.309997   -3.066448   0.090955 C.3        1 UNL1     0.0236
     38 C         2.500803   -2.36006   -0.718206 C.3        1 UNL1     0.1131
     39 C         3.505716   -1.402574   0.040503 C.3        1 UNL1     0.0200
     40 C         2.93993   -0.28897   1.14604 C.3        1 UNL1     0.0661
     41 C         1.672156   0.808823   0.890673 C.3        1 UNL1     0.0091
     42 C         0.441116   1.498693   2.06286 C.3        1 UNL1     0.0661
     43 C         -6.186292   -1.578031   6.821075 C.2        1 UNL1     0.2131
     44 O         -7.165923   -2.109804   7.311257 O.2        1 UNL1     -0.2851
     45 O         -5.46938   -3.69274   8.517813 O.3        1 UNL1     -0.5056
     46 O         -1.235841   -1.285325   4.209847 O.2        1 UNL1     -0.2836
     47 C         1.028662   2.607122   4.417427 C.3        1 UNL1     -0.0566
     48 O         0.624883   2.898648   1.609571 O.3        1 UNL1     -0.3909
     49 C         0.915767   0.399953   -0.353592 C.3        1 UNL1     -0.0577
     50 O         2.824288   -0.870691   2.428986 O.3        1 UNL1     -0.3910
     51 O         3.095406   -3.636562   1.795503 O.3        1 UNL1     -0.3753
     52 C         -0.096371   -2.401561   0.249086 C.3        1 UNL1     -0.0564
     53 O         2.123845   -1.961251   -2.115052 O.3        1 UNL1     -0.4608
     54 C         2.758959   -1.009292   -2.868932 C.2        1 UNL1     0.3042
     55 O         2.382145   0.14051   -3.092103 O.2        1 UNL1     -0.2512
     56 C         4.085282   -1.45889   -3.412479 C.3        1 UNL1     0.0332
     57 C         4.786155   -2.271011   0.44605 C.3        1 UNL1     -0.0567
     58 C         -1.537422   -4.544349   3.829201 C.3        1 UNL1     0.0210
     59 C         3.449674   -4.258747   3.029702 C.3        1 UNL1     0.0372
     60 C         0.914854   -3.543844   2.60138 C.2        1 UNL1     -0.0208
     61 C         1.2663   -3.277803   3.860131 C.2        1 UNL1     0.0882
     62 H         -0.140738   0.854279   4.037474 H        1 UNL1     0.0365
     63 H         -1.692865   1.077746   5.3456 H        1 UNL1     0.0576
     64 H         -2.930659   3.891921   5.133327 H        1 UNL1     0.0615
     65 H         -3.694341   1.351548   6.782918 H        1 UNL1     0.0622
     66 H         1.608411   -4.884884   1.172839 H        1 UNL1     0.0645
     67 H         1.025624   -3.878074   -0.601111 H        1 UNL1     0.0362
     68 H         3.091902   -3.248393   -0.988372 H        1 UNL1     0.0741
     69 H         4.009329   -0.779835   -0.686807 H        1 UNL1     0.0359
     70 H         3.824599   0.371968   1.22074 H        1 UNL1     0.0600
     71 H         2.244209   1.681864   0.519847 H        1 UNL1     0.0348
     72 H         1.269175   1.121071   2.68014 H        1 UNL1     0.0602
     73 H         -0.105423   -3.70995   2.359118 H        1 UNL1     0.0628
     74 H         2.281133   -3.038381   4.179549 H        1 UNL1     0.1022
     75 H         -5.937751   4.734448   7.322315 H        1 UNL1     0.0279
     76 H         -6.890858   4.011837   6.088329 H        1 UNL1     0.0279
     77 H         -7.112167   3.595006   7.83549 H        1 UNL1     0.0279
     78 H         -7.274349   1.392269   5.937556 H        1 UNL1     0.1553
     79 H         -6.175685   1.827548   4.347054 H        1 UNL1     0.1484
     80 H         -4.754241   0.053498   1.302101 H        1 UNL1     0.0317
     81 H         -5.757546   -0.760486   2.494046 H        1 UNL1     0.0317
     82 H         -7.247023   1.247955   2.697339 H        1 UNL1     0.0428
     83 H         -7.141958   0.647   1.057364 H        1 UNL1     0.0428
     84 H         -4.74197   4.030732   2.002644 H        1 UNL1     0.0428
     85 H         -5.74158   3.418613   3.273555 H        1 UNL1     0.0428
     86 H         -3.337836   2.750839   3.30431 H        1 UNL1     0.0317
     87 H         -3.43082   1.976649   1.789604 H        1 UNL1     0.0317
     88 H         -7.956512   3.22176   1.410504 H        1 UNL1     0.0429
     89 H         -6.731934   4.307267   0.748447 H        1 UNL1     0.0429
     90 H         -8.27027   2.067516   -0.539913 H        1 UNL1     0.0308
     91 H         -7.003301   4.687351   -1.503193 H        1 UNL1     0.0233
     92 H         -7.766451   3.517011   -2.609268 H        1 UNL1     0.0233
     93 H         -8.719052   4.317761   -1.378027 H        1 UNL1     0.0233
     94 H         -6.310496   1.811629   -2.231889 H        1 UNL1     0.0233
     95 H         -5.302582   2.30793   -0.863633 H        1 UNL1     0.0233
     96 H         -6.316493   0.85184   -0.738028 H        1 UNL1     0.0233
     97 H         -2.829861   -6.125509   7.351395 H        1 UNL1     0.0280
     98 H         -2.198511   -5.303499   8.752424 H        1 UNL1     0.0280
     99 H         -3.942987   -5.688404   8.660868 H        1 UNL1     0.0280
     100 H         -5.784033   -2.985176   9.052573 H        1 UNL1     0.2922
     101 H         1.709545   1.851965   4.809591 H        1 UNL1     0.0236
     102 H         0.761864   3.347864   5.17049 H        1 UNL1     0.0236
     103 H         1.625149   3.163317   3.675104 H        1 UNL1     0.0236
     104 H         -0.019114   3.063713   0.893337 H        1 UNL1     0.2098
     105 H         0.682351   1.220612   -1.027274 H        1 UNL1     0.0234
     106 H         1.361182   -0.427292   -0.90604 H        1 UNL1     0.0234
     107 H         0.0   -0.0   0.0 H        1 UNL1     0.0234
     108 H         2.512548   -0.17283   3.036913 H        1 UNL1     0.2098
     109 H         -0.120453   -1.66898   1.0679 H        1 UNL1     0.0234
     110 H         -0.456867   -1.932651   -0.67282 H        1 UNL1     0.0234
     111 H         -0.869671   -3.142901   0.49068 H        1 UNL1     0.0234
     112 H         4.547011   -0.648496   -3.984678 H        1 UNL1     0.0342
     113 H         4.751719   -1.811303   -2.626661 H        1 UNL1     0.0342
     114 H         3.907959   -2.297722   -4.099561 H        1 UNL1     0.0342
     115 H         5.4879   -1.698161   1.067809 H        1 UNL1     0.0234
     116 H         4.546691   -3.190741   0.983454 H        1 UNL1     0.0234
     117 H         5.428218   -2.535154   -0.411811 H        1 UNL1     0.0234
     118 H         -0.770183   -5.133409   3.296886 H        1 UNL1     0.0309
     119 H         -2.29614   -5.223783   4.230347 H        1 UNL1     0.0309
     120 H         -2.027233   -3.983087   3.025972 H        1 UNL1     0.0309
     121 H         4.288477   -3.704268   3.449605 H        1 UNL1     0.0524
     122 H         2.628784   -4.226381   3.765317 H        1 UNL1     0.0524
     123 H         3.73156   -5.294251   2.861281 H        1 UNL1     0.0524
@<TRIPOS>BOND
     1     1     2    1
     2     1    42    1
     3     2     3    2
     4     3     4    1
     5     4     5    2
     6     5     7    1
     7     6    75    1
     8     6    76    1
     9     6    77    1
    10     7     9   am
    11     9    10    1
    12    10    11    2
    13    10    43    1
    14    11    14    1
    15    11    15    1
    16    12    13   ar
    17    12    27   ar
    18    12    43    1
    19    13    14    1
    20    13    30   ar
    21    14    17    2
    22    15    16    1
    23    16    17    1
    24    16    18    1
    25    16    22    1
    26    18    19    1
    27    19    20    1
    28    20    21    1
    29    21    22    1
    30    23    24    1
    31    23    88    1
    32    23    89    1
    33    24    25    1
    34    24    26    1
    35    24    90    1
    36    25    91    1
    37    25    92    1
    38    25    93    1
    39    26    94    1
    40    26    95    1
    41    26    96    1
    42    27    28   ar
    43    28    29   ar
    44    29    30   ar
    45    29    31    1
    46    30    33    1
    47    31    32    1
    48    32    33    1
    49    32    35    1
    50    34    97    1
    51    34    98    1
    52    34    99    1
    53    35    61    1
    54    36    37    1
    55    36    60    1
    56    37    38    1
    57    38    39    1
    58    39    40    1
    59    40    41    1
    60    41    42    1
    61    45   100    1
    62    47   101    1
    63    47   102    1
    64    47   103    1
    65    48   104    1
    66    49   105    1
    67    49   106    1
    68    49   107    1
    69    50   108    1
    70    51    59    1
    71    52   109    1
    72    52   110    1
    73    52   111    1
    74    53    54    1
    75    54    55    2
    76    54    56    1
    77    56   112    1
    78    56   113    1
    79    56   114    1
    80    57   115    1
    81    57   116    1
    82    57   117    1
    83    58   118    1
    84    58   119    1
    85    58   120    1
    86    59   121    1
    87    59   122    1
    88    59   123    1
    89    60    61    2
    90     1    47    1
    91     1    62    1
    92     2    63    1
    93     3    64    1
    94     4    65    1
    95     5     6    1
    96     7     8    2
    97     9    78    1
    98    15    79    1
    99    18    80    1
   100    18    81    1
   101    19    82    1
   102    19    83    1
   103    20    23    1
   104    21    84    1
   105    21    85    1
   106    22    86    1
   107    22    87    1
   108    27    45    1
   109    28    34    1
   110    32    58    1
   111    33    46    2
   112    36    51    1
   113    36    66    1
   114    37    52    1
   115    37    67    1
   116    38    53    1
   117    38    68    1
   118    42    48    1
   119    42    72    1
   120    43    44    2
   121    60    73    1
   122    61    74    1
   123    39    69    1
   124    39    57    1
   125    40    70    1
   126    40    50    1
   127    41    71    1
   128    41    49    1
