@<TRIPOS>MOLECULE
*****
 123 128 0 0 0
SMALL
GASTEIGER

@<TRIPOS>ATOM
     1 C         3.540864   -1.671045   -2.749457 C.3        1 UNL1     0.0009
     2 C         4.09337   -1.286737   -4.476906 C.2        1 UNL1     -0.0787
     3 C         4.294941   -1.694881   -5.851255 C.2        1 UNL1     -0.0649
     4 C         4.790076   -0.739694   -7.158472 C.2        1 UNL1     -0.0542
     5 C         4.823756   -0.631931   -8.57068 C.2        1 UNL1     0.0115
     6 C         4.568207   -1.400938   -9.896066 C.3        1 UNL1     -0.0348
     7 C         5.096606   0.804264   -9.233918 C.2        1 UNL1     0.2441
     8 O         6.1814   1.127772   -9.697694 O.2        1 UNL1     -0.2702
     9 N         3.942301   1.567173   -9.482317 N.am        1 UNL1     -0.2772
     10 C         3.617777   2.32066   -8.377662 C.2        1 UNL1     0.1049
     11 C         2.928127   1.704376   -7.434901 C.2        1 UNL1     0.0801
     12 C         4.591958   3.891349   -6.692064 C.ar        1 UNL1     0.0753
     13 C         3.992114   3.063776   -5.690108 C.ar        1 UNL1     0.0305
     14 C         3.031246   2.018591   -6.035611 C.2        1 UNL1     0.0924
     15 N         2.303612   0.514459   -7.459501 N.pl3        1 UNL1     -0.3170
     16 C         1.555902   0.385284   -6.237004 C.3        1 UNL1     0.1275
     17 N         2.31033   1.23221   -5.241375 N.2        1 UNL1     -0.2557
     18 C         0.21413   1.078857   -6.452198 C.3        1 UNL1     0.0016
     19 C         -0.460797   0.465513   -7.668698 C.3        1 UNL1     0.0026
     20 N         -0.639786   -0.960785   -7.43489 N.3        1 UNL1     -0.3018
     21 C         0.590655   -1.704427   -7.156717 C.3        1 UNL1     0.0026
     22 C         1.249713   -1.074376   -5.928477 C.3        1 UNL1     0.0016
     23 C         -1.53352   -1.581408   -8.39234 C.3        1 UNL1     0.0012
     24 C         -2.038895   -0.544654   -9.407965 C.3        1 UNL1     -0.0339
     25 C         -1.962588   0.882231   -8.840309 C.3        1 UNL1     -0.0615
     26 C         -1.265885   -0.670653   -10.709257 C.3        1 UNL1     -0.0615
     27 C         5.412645   4.962566   -6.346976 C.ar        1 UNL1     0.1347
     28 C         5.673637   5.326758   -5.038046 C.ar        1 UNL1     0.0342
     29 C         5.112127   4.468257   -4.069106 C.ar        1 UNL1     0.1435
     30 C         4.317547   3.370094   -4.40062 C.ar        1 UNL1     0.0774
     31 O         5.184114   4.751432   -2.750153 O.3        1 UNL1     -0.4436
     32 C         4.142962   3.963989   -2.152819 C.3        1 UNL1     0.3143
     33 C         3.898213   2.827809   -3.125139 C.2        1 UNL1     0.2504
     34 C         6.33247   6.602485   -4.592444 C.3        1 UNL1     -0.0327
     35 O         4.680522   3.382579   -0.958564 O.2        1 UNL1     -0.4528
     36 C         1.748772   2.995243   1.42112 C.3        1 UNL1     0.0854
     37 C         0.394367   2.213939   1.214543 C.3        1 UNL1     0.0236
     38 C         0.065101   1.122261   2.342181 C.3        1 UNL1     0.1131
     39 C         1.15656   0.047491   2.736966 C.3        1 UNL1     0.0200
     40 C         2.04796   -0.724195   1.556989 C.3        1 UNL1     0.0661
     41 C         1.4216   -1.480683   0.173873 C.3        1 UNL1     0.0091
     42 C         2.133524   -1.666039   -1.506665 C.3        1 UNL1     0.0661
     43 C         4.239303   3.625971   -8.108916 C.2        1 UNL1     0.2131
     44 O         4.347167   4.453443   -8.995703 O.2        1 UNL1     -0.2851
     45 O         5.993823   5.690037   -7.383537 O.3        1 UNL1     -0.5056
     46 O         3.47373   1.717495   -2.895206 O.2        1 UNL1     -0.2836
     47 C         4.589636   -2.564485   -2.034039 C.3        1 UNL1     -0.0566
     48 O         1.824886   -3.113392   -1.60168 O.3        1 UNL1     -0.3909
     49 C         -0.020448   -1.059811   -0.00179 C.3        1 UNL1     -0.0577
     50 O         3.191829   0.033339   1.217238 O.3        1 UNL1     -0.3910
     51 O         2.579181   2.524956   2.458753 O.3        1 UNL1     -0.3753
     52 C         0.092671   1.962606   -0.298983 C.3        1 UNL1     -0.0564
     53 O         -1.359965   0.651928   2.324822 O.3        1 UNL1     -0.4608
     54 C         -2.366033   1.191086   1.566491 C.2        1 UNL1     0.3042
     55 O         -3.557152   1.281421   1.861302 O.2        1 UNL1     -0.2512
     56 C         -1.892783   1.770425   0.263758 C.3        1 UNL1     0.0332
     57 C         1.937425   0.601298   4.018263 C.3        1 UNL1     -0.0567
     58 C         2.88525   4.862748   -2.108976 C.3        1 UNL1     0.0210
     59 C         3.865086   2.071449   2.038461 C.3        1 UNL1     0.0372
     60 C         2.601485   3.107622   0.206455 C.2        1 UNL1     -0.0208
     61 C         3.914303   2.930054   0.052434 C.2        1 UNL1     0.0882
     62 H         3.767122   -0.635727   -2.46726 H        1 UNL1     0.0365
     63 H         4.479643   -0.273696   -4.346482 H        1 UNL1     0.0576
     64 H         3.971613   -2.674312   -6.210812 H        1 UNL1     0.0615
     65 H         5.163329   0.173611   -6.687262 H        1 UNL1     0.0622
     66 H         1.440785   4.02079   1.669001 H        1 UNL1     0.0645
     67 H         -0.38454   2.971707   1.408584 H        1 UNL1     0.0362
     68 H         -0.023583   1.783269   3.21781 H        1 UNL1     0.0741
     69 H         0.668079   -0.775527   3.241383 H        1 UNL1     0.0359
     70 H         2.444007   -1.575361   2.143268 H        1 UNL1     0.0600
     71 H         1.301277   -2.513338   0.556108 H        1 UNL1     0.0348
     72 H         2.97948   -1.436589   -0.842567 H        1 UNL1     0.0602
     73 H         2.021483   3.498091   -0.592532 H        1 UNL1     0.0628
     74 H         4.567878   2.481137   0.801133 H        1 UNL1     0.1022
     75 H         3.493671   -1.327416   -10.191024 H        1 UNL1     0.0279
     76 H         5.079907   -1.027281   -10.780154 H        1 UNL1     0.0279
     77 H         4.689071   -2.488658   -9.786714 H        1 UNL1     0.0279
     78 H         3.157186   0.947753   -9.672031 H        1 UNL1     0.1553
     79 H         2.051538   0.035095   -8.30425 H        1 UNL1     0.1484
     80 H         -0.399032   0.958757   -5.550881 H        1 UNL1     0.0317
     81 H         0.349351   2.155929   -6.59808 H        1 UNL1     0.0317
     82 H         0.11491   0.646688   -8.588289 H        1 UNL1     0.0428
     83 H         -1.414777   0.975787   -7.805056 H        1 UNL1     0.0428
     84 H         0.420434   -2.756156   -6.906312 H        1 UNL1     0.0428
     85 H         1.252255   -1.742541   -8.033158 H        1 UNL1     0.0428
     86 H         2.069356   -1.721191   -5.675884 H        1 UNL1     0.0317
     87 H         0.583485   -1.158431   -5.061198 H        1 UNL1     0.0317
     88 H         -0.971769   -2.354727   -8.932441 H        1 UNL1     0.0429
     89 H         -2.370043   -2.083631   -7.889574 H        1 UNL1     0.0429
     90 H         -3.083434   -0.765802   -9.657456 H        1 UNL1     0.0308
     91 H         -1.088954   1.006768   -8.193505 H        1 UNL1     0.0233
     92 H         -1.91895   1.617248   -9.647436 H        1 UNL1     0.0233
     93 H         -2.842862   1.140148   -8.239117 H        1 UNL1     0.0233
     94 H         -1.012743   -1.719496   -10.898161 H        1 UNL1     0.0233
     95 H         -1.877978   -0.316101   -11.543281 H        1 UNL1     0.0233
     96 H         -0.338857   -0.091208   -10.680425 H        1 UNL1     0.0233
     97 H         6.555878   6.596082   -3.529769 H        1 UNL1     0.0280
     98 H         7.290971   6.772449   -5.10003 H        1 UNL1     0.0280
     99 H         5.66484   7.454692   -4.800072 H        1 UNL1     0.0280
     100 H         6.075405   6.612591   -7.216624 H        1 UNL1     0.2922
     101 H         5.496761   -2.620064   -2.635447 H        1 UNL1     0.0236
     102 H         4.207818   -3.552118   -1.777565 H        1 UNL1     0.0236
     103 H         4.916512   -2.131524   -1.073888 H        1 UNL1     0.0236
     104 H         1.899265   -3.369746   -2.541744 H        1 UNL1     0.2098
     105 H         -0.471707   -1.3823   -0.936765 H        1 UNL1     0.0234
     106 H         -0.67194   -1.305663   0.836687 H        1 UNL1     0.0234
     107 H         0.0   0.0   0.0 H        1 UNL1     0.0234
     108 H         3.228635   0.793511   1.829244 H        1 UNL1     0.2098
     109 H         0.107632   0.893804   -0.554229 H        1 UNL1     0.0234
     110 H         -0.853748   2.404781   -0.628401 H        1 UNL1     0.0234
     111 H         0.845548   2.433119   -0.945311 H        1 UNL1     0.0234
     112 H         -1.940133   1.009375   -0.52104 H        1 UNL1     0.0342
     113 H         -2.456589   2.658295   -0.018472 H        1 UNL1     0.0342
     114 H         -0.841569   2.067288   0.382017 H        1 UNL1     0.0342
     115 H         1.906281   1.698216   4.072933 H        1 UNL1     0.0234
     116 H         1.562735   0.214427   4.967993 H        1 UNL1     0.0234
     117 H         3.025533   0.420534   3.982404 H        1 UNL1     0.0234
     118 H         2.829685   5.452934   -1.177527 H        1 UNL1     0.0309
     119 H         2.810345   5.538998   -2.966459 H        1 UNL1     0.0309
     120 H         1.955209   4.283964   -2.097098 H        1 UNL1     0.0309
     121 H         4.572873   2.304176   2.833591 H        1 UNL1     0.0524
     122 H         3.89235   0.980711   1.878507 H        1 UNL1     0.0524
     123 H         4.157359   2.570101   1.118669 H        1 UNL1     0.0524
@<TRIPOS>BOND
     1     1     2    1
     2     1    42    1
     3     2     3    2
     4     3     4    1
     5     4     5    2
     6     5     7    1
     7     6    75    1
     8     6    76    1
     9     6    77    1
    10     7     9   am
    11     9    10    1
    12    10    11    2
    13    10    43    1
    14    11    14    1
    15    11    15    1
    16    12    13   ar
    17    12    27   ar
    18    12    43    1
    19    13    14    1
    20    13    30   ar
    21    14    17    2
    22    15    16    1
    23    16    17    1
    24    16    18    1
    25    16    22    1
    26    18    19    1
    27    19    20    1
    28    20    21    1
    29    21    22    1
    30    23    24    1
    31    23    88    1
    32    23    89    1
    33    24    25    1
    34    24    26    1
    35    24    90    1
    36    25    91    1
    37    25    92    1
    38    25    93    1
    39    26    94    1
    40    26    95    1
    41    26    96    1
    42    27    28   ar
    43    28    29   ar
    44    29    30   ar
    45    29    31    1
    46    30    33    1
    47    31    32    1
    48    32    33    1
    49    32    35    1
    50    34    97    1
    51    34    98    1
    52    34    99    1
    53    35    61    1
    54    36    37    1
    55    36    60    1
    56    37    38    1
    57    38    39    1
    58    39    40    1
    59    40    41    1
    60    41    42    1
    61    45   100    1
    62    47   101    1
    63    47   102    1
    64    47   103    1
    65    48   104    1
    66    49   105    1
    67    49   106    1
    68    49   107    1
    69    50   108    1
    70    51    59    1
    71    52   109    1
    72    52   110    1
    73    52   111    1
    74    53    54    1
    75    54    55    2
    76    54    56    1
    77    56   112    1
    78    56   113    1
    79    56   114    1
    80    57   115    1
    81    57   116    1
    82    57   117    1
    83    58   118    1
    84    58   119    1
    85    58   120    1
    86    59   121    1
    87    59   122    1
    88    59   123    1
    89    60    61    2
    90     1    47    1
    91     1    62    1
    92     2    63    1
    93     3    64    1
    94     4    65    1
    95     5     6    1
    96     7     8    2
    97     9    78    1
    98    15    79    1
    99    18    80    1
   100    18    81    1
   101    19    82    1
   102    19    83    1
   103    20    23    1
   104    21    84    1
   105    21    85    1
   106    22    86    1
   107    22    87    1
   108    27    45    1
   109    28    34    1
   110    32    58    1
   111    33    46    2
   112    36    51    1
   113    36    66    1
   114    37    52    1
   115    37    67    1
   116    38    53    1
   117    38    68    1
   118    42    48    1
   119    42    72    1
   120    43    44    2
   121    60    73    1
   122    61    74    1
   123    39    69    1
   124    39    57    1
   125    40    70    1
   126    40    50    1
   127    41    71    1
   128    41    49    1
