@<TRIPOS>MOLECULE
*****
 123 128 0 0 0
SMALL
GASTEIGER

@<TRIPOS>ATOM
     1 C         0.961316   1.350452   -5.185601 C.3        1 UNL1     0.0009
     2 C         0.226203   1.667671   -6.857731 C.2        1 UNL1     -0.0787
     3 C         -0.127277   1.203996   -8.182911 C.2        1 UNL1     -0.0649
     4 C         -0.994406   2.032082   -9.378201 C.2        1 UNL1     -0.0542
     5 C         -1.759383   1.895005   -10.562726 C.2        1 UNL1     0.0115
     6 C         -2.193378   0.895172   -11.669661 C.3        1 UNL1     -0.0348
     7 C         -2.70321   3.109279   -11.022852 C.2        1 UNL1     0.2441
     8 O         -2.401285   3.883468   -11.920626 O.2        1 UNL1     -0.2702
     9 N         -4.010134   3.067647   -10.506742 N.am        1 UNL1     -0.2772
     10 C         -4.065157   3.702005   -9.286954 C.2        1 UNL1     0.1049
     11 C         -3.699234   2.984125   -8.240545 C.2        1 UNL1     0.0801
     12 C         -3.406667   5.812951   -8.117496 C.ar        1 UNL1     0.0753
     13 C         -2.835759   4.980274   -7.102942 C.ar        1 UNL1     0.0305
     14 C         -3.080251   3.540118   -7.067895 C.2        1 UNL1     0.0924
     15 N         -3.47693   1.662812   -8.134522 N.pl3        1 UNL1     -0.3170
     16 C         -3.270344   1.362279   -6.742668 C.3        1 UNL1     0.1275
     17 N         -2.719002   2.639769   -6.158062 N.2        1 UNL1     -0.2557
     18 C         -4.646349   1.167707   -6.113021 C.3        1 UNL1     0.0016
     19 C         -5.386266   0.087234   -6.885479 C.3        1 UNL1     0.0026
     20 N         -4.607304   -1.14218   -6.832671 N.3        1 UNL1     -0.3018
     21 C         -3.245164   -1.038272   -7.360067 C.3        1 UNL1     0.0026
     22 C         -2.518783   0.049358   -6.566768 C.3        1 UNL1     0.0016
     23 C         -5.354306   -2.302551   -7.275582 C.3        1 UNL1     0.0012
     24 C         -6.528843   -1.877463   -8.170858 C.3        1 UNL1     -0.0339
     25 C         -6.362802   -0.431887   -8.667647 C.3        1 UNL1     -0.0615
     26 C         -6.682159   -2.851438   -9.326127 C.3        1 UNL1     -0.0615
     27 C         -3.269266   7.198415   -8.075932 C.ar        1 UNL1     0.1347
     28 C         -2.619715   7.86551   -7.052644 C.ar        1 UNL1     0.0342
     29 C         -2.023649   7.022489   -6.090778 C.ar        1 UNL1     0.1435
     30 C         -2.12211   5.631372   -6.138945 C.ar        1 UNL1     0.0774
     31 O         -1.449796   7.5222   -4.97454 O.3        1 UNL1     -0.4436
     32 C         -1.401318   6.413294   -4.064129 C.3        1 UNL1     0.3143
     33 C         -1.446077   5.17841   -4.94121 C.2        1 UNL1     0.2504
     34 C         -2.648857   9.348713   -6.809004 C.3        1 UNL1     -0.0327
     35 O         -0.113104   6.433074   -3.436941 O.2        1 UNL1     -0.4528
     36 C         -0.61321   4.935719   0.015003 C.3        1 UNL1     0.0854
     37 C         -1.189968   3.523108   0.414255 C.3        1 UNL1     0.0236
     38 C         -0.23147   2.641729   1.35031 C.3        1 UNL1     0.1131
     39 C         1.279242   2.418146   0.937965 C.3        1 UNL1     0.0200
     40 C         1.680183   2.063243   -0.641823 C.3        1 UNL1     0.0661
     41 C         0.964375   0.862633   -1.602949 C.3        1 UNL1     0.0091
     42 C         0.669099   0.806021   -3.412647 C.3        1 UNL1     0.0661
     43 C         -4.22632   5.158749   -9.167472 C.2        1 UNL1     0.2131
     44 O         -5.063096   5.744426   -9.830439 O.2        1 UNL1     -0.2851
     45 O         -3.815858   7.932685   -9.126419 O.3        1 UNL1     -0.5056
     46 O         -1.003527   4.074998   -4.712111 O.2        1 UNL1     -0.2836
     47 C         2.510472   1.3082   -5.276777 C.3        1 UNL1     -0.0566
     48 O         1.20415   -0.567818   -3.572031 O.3        1 UNL1     -0.3909
     49 C         -0.309045   0.396286   -0.93331 C.3        1 UNL1     -0.0577
     50 O         1.848807   3.247759   -1.394294 O.3        1 UNL1     -0.3910
     51 O         0.727347   5.17863   0.377403 O.3        1 UNL1     -0.3753
     52 C         -2.033445   2.891392   -0.74092 C.3        1 UNL1     -0.0564
     53 O         -0.926678   1.47917   1.996428 O.3        1 UNL1     -0.4608
     54 C         -0.941268   1.207967   3.339621 C.2        1 UNL1     0.3042
     55 O         -1.349311   0.186497   3.890926 O.2        1 UNL1     -0.2512
     56 C         -0.327401   2.292259   4.178782 C.3        1 UNL1     0.0332
     57 C         2.155065   3.518311   1.700032 C.3        1 UNL1     -0.0567
     58 C         -2.699833   6.477763   -3.226732 C.3        1 UNL1     0.0210
     59 C         1.689793   4.393559   -0.324898 C.3        1 UNL1     0.0372
     60 C         -0.737172   5.280741   -1.427479 C.2        1 UNL1     -0.0208
     61 C         0.148212   5.820103   -2.266484 C.2        1 UNL1     0.0882
     62 H         0.692733   2.373165   -4.894683 H        1 UNL1     0.0365
     63 H         -0.002734   2.732629   -6.780773 H        1 UNL1     0.0576
     64 H         0.00677   0.161228   -8.479179 H        1 UNL1     0.0615
     65 H         -1.001827   3.066842   -9.025071 H        1 UNL1     0.0622
     66 H         -1.247463   5.654738   0.552386 H        1 UNL1     0.0645
     67 H         -2.017589   3.757263   1.10619 H        1 UNL1     0.0362
     68 H         -0.198331   3.288387   2.240398 H        1 UNL1     0.0741
     69 H         1.664629   1.563664   1.478099 H        1 UNL1     0.0359
     70 H         2.708057   1.679456   -0.496075 H        1 UNL1     0.0600
     71 H         1.644344   0.014336   -1.390838 H        1 UNL1     0.0348
     72 H         1.446181   1.568177   -3.255872 H        1 UNL1     0.0602
     73 H         -1.745553   5.149228   -1.732634 H        1 UNL1     0.0628
     74 H         1.21113   5.934772   -2.051329 H        1 UNL1     0.1022
     75 H         -1.302862   0.516784   -12.227189 H        1 UNL1     0.0279
     76 H         -2.6677   -0.024304   -11.334025 H        1 UNL1     0.0279
     77 H         -2.765948   1.376   -12.476301 H        1 UNL1     0.0279
     78 H         -4.289883   2.099791   -10.361578 H        1 UNL1     0.1553
     79 H         -3.818392   0.986041   -8.79203 H        1 UNL1     0.1484
     80 H         -4.521429   0.892122   -5.058879 H        1 UNL1     0.0317
     81 H         -5.218719   2.101432   -6.127188 H        1 UNL1     0.0317
     82 H         -5.578641   0.389567   -7.925431 H        1 UNL1     0.0428
     83 H         -6.36534   -0.034124   -6.421006 H        1 UNL1     0.0428
     84 H         -2.655817   -1.952086   -7.235866 H        1 UNL1     0.0428
     85 H         -3.239063   -0.86221   -8.444632 H        1 UNL1     0.0428
     86 H         -1.494222   0.005676   -6.886699 H        1 UNL1     0.0317
     87 H         -2.466143   -0.231247   -5.507718 H        1 UNL1     0.0317
     88 H         -4.67976   -2.939207   -7.862907 H        1 UNL1     0.0429
     89 H         -5.702003   -2.901755   -6.424209 H        1 UNL1     0.0429
     90 H         -7.460629   -1.94457   -7.596851 H        1 UNL1     0.0308
     91 H         -7.170387   -0.150644   -9.35015 H        1 UNL1     0.0233
     92 H         -6.34436   0.265741   -7.827062 H        1 UNL1     0.0233
     93 H         -5.421357   -0.282202   -9.209967 H        1 UNL1     0.0233
     94 H         -6.501376   -2.340075   -10.277789 H        1 UNL1     0.0233
     95 H         -5.950927   -3.659302   -9.233292 H        1 UNL1     0.0233
     96 H         -7.685806   -3.285017   -9.352012 H        1 UNL1     0.0233
     97 H         -1.711059   9.824602   -7.079735 H        1 UNL1     0.0280
     98 H         -3.42324   9.850641   -7.403694 H        1 UNL1     0.0280
     99 H         -2.839547   9.54358   -5.740941 H        1 UNL1     0.0280
     100 H         -4.748702   8.047824   -9.07987 H        1 UNL1     0.2922
     101 H         2.826444   0.370635   -5.73371 H        1 UNL1     0.0236
     102 H         3.001099   1.482528   -4.319762 H        1 UNL1     0.0236
     103 H         2.907638   2.092086   -5.943092 H        1 UNL1     0.0236
     104 H         0.631459   -1.035069   -4.211306 H        1 UNL1     0.2098
     105 H         -1.028845   1.186985   -0.737111 H        1 UNL1     0.0234
     106 H         -0.797742   -0.446881   -1.42134 H        1 UNL1     0.0234
     107 H         0.0   -0.0   0.0 H        1 UNL1     0.0234
     108 H         2.80756   3.427655   -1.441166 H        1 UNL1     0.2098
     109 H         -1.427805   2.688365   -1.635175 H        1 UNL1     0.0234
     110 H         -2.56004   1.979252   -0.440183 H        1 UNL1     0.0234
     111 H         -2.835275   3.564935   -1.071608 H        1 UNL1     0.0234
     112 H         0.756986   2.154805   4.229355 H        1 UNL1     0.0342
     113 H         -0.578539   3.28615   3.81142 H        1 UNL1     0.0342
     114 H         -0.726013   2.20385   5.19881 H        1 UNL1     0.0342
     115 H         3.145904   3.132031   1.976099 H        1 UNL1     0.0234
     116 H         2.30788   4.436895   1.130031 H        1 UNL1     0.0234
     117 H         1.75087   3.794514   2.689112 H        1 UNL1     0.0234
     118 H         -3.461651   7.127221   -3.692396 H        1 UNL1     0.0309
     119 H         -3.137276   5.492677   -3.035806 H        1 UNL1     0.0309
     120 H         -2.543917   6.935954   -2.243952 H        1 UNL1     0.0309
     121 H         2.199257   3.765567   0.405464 H        1 UNL1     0.0524
     122 H         1.223093   3.726203   -1.068446 H        1 UNL1     0.0524
     123 H         2.404694   5.037758   -0.8289 H        1 UNL1     0.0524
@<TRIPOS>BOND
     1     1     2    1
     2     1    42    1
     3     2     3    2
     4     3     4    1
     5     4     5    2
     6     5     7    1
     7     6    75    1
     8     6    76    1
     9     6    77    1
    10     7     9   am
    11     9    10    1
    12    10    11    2
    13    10    43    1
    14    11    14    1
    15    11    15    1
    16    12    13   ar
    17    12    27   ar
    18    12    43    1
    19    13    14    1
    20    13    30   ar
    21    14    17    2
    22    15    16    1
    23    16    17    1
    24    16    18    1
    25    16    22    1
    26    18    19    1
    27    19    20    1
    28    20    21    1
    29    21    22    1
    30    23    24    1
    31    23    88    1
    32    23    89    1
    33    24    25    1
    34    24    26    1
    35    24    90    1
    36    25    91    1
    37    25    92    1
    38    25    93    1
    39    26    94    1
    40    26    95    1
    41    26    96    1
    42    27    28   ar
    43    28    29   ar
    44    29    30   ar
    45    29    31    1
    46    30    33    1
    47    31    32    1
    48    32    33    1
    49    32    35    1
    50    34    97    1
    51    34    98    1
    52    34    99    1
    53    35    61    1
    54    36    37    1
    55    36    60    1
    56    37    38    1
    57    38    39    1
    58    39    40    1
    59    40    41    1
    60    41    42    1
    61    45   100    1
    62    47   101    1
    63    47   102    1
    64    47   103    1
    65    48   104    1
    66    49   105    1
    67    49   106    1
    68    49   107    1
    69    50   108    1
    70    51    59    1
    71    52   109    1
    72    52   110    1
    73    52   111    1
    74    53    54    1
    75    54    55    2
    76    54    56    1
    77    56   112    1
    78    56   113    1
    79    56   114    1
    80    57   115    1
    81    57   116    1
    82    57   117    1
    83    58   118    1
    84    58   119    1
    85    58   120    1
    86    59   121    1
    87    59   122    1
    88    59   123    1
    89    60    61    2
    90     1    47    1
    91     1    62    1
    92     2    63    1
    93     3    64    1
    94     4    65    1
    95     5     6    1
    96     7     8    2
    97     9    78    1
    98    15    79    1
    99    18    80    1
   100    18    81    1
   101    19    82    1
   102    19    83    1
   103    20    23    1
   104    21    84    1
   105    21    85    1
   106    22    86    1
   107    22    87    1
   108    27    45    1
   109    28    34    1
   110    32    58    1
   111    33    46    2
   112    36    51    1
   113    36    66    1
   114    37    52    1
   115    37    67    1
   116    38    53    1
   117    38    68    1
   118    42    48    1
   119    42    72    1
   120    43    44    2
   121    60    73    1
   122    61    74    1
   123    39    69    1
   124    39    57    1
   125    40    70    1
   126    40    50    1
   127    41    71    1
   128    41    49    1
