@<TRIPOS>MOLECULE
*****
 123 128 0 0 0
SMALL
GASTEIGER

@<TRIPOS>ATOM
     1 C         4.764436   2.55483   0.885861 C.3        1 UNL1     0.0009
     2 C         6.134625   3.550597   0.132159 C.2        1 UNL1     -0.0787
     3 C         7.478375   3.637588   -0.399643 C.2        1 UNL1     -0.0649
     4 C         8.220992   4.967605   -1.138514 C.2        1 UNL1     -0.0542
     5 C         9.27376   5.384793   -1.989814 C.2        1 UNL1     0.0115
     6 C         10.572134   4.918364   -2.703951 C.3        1 UNL1     -0.0348
     7 C         9.193345   6.83628   -2.670776 C.2        1 UNL1     0.2441
     8 O         9.83069   7.798157   -2.26444 O.2        1 UNL1     -0.2702
     9 N         8.546727   6.866419   -3.918625 N.am        1 UNL1     -0.2772
     10 C         7.192876   7.048602   -3.753645 C.2        1 UNL1     0.1049
     11 C         6.487748   5.963971   -3.487953 C.2        1 UNL1     0.0801
     12 C         5.513036   8.476829   -2.572274 C.ar        1 UNL1     0.0753
     13 C         4.901778   7.258944   -2.134409 C.ar        1 UNL1     0.0305
     14 C         5.293482   5.96435   -2.687262 C.2        1 UNL1     0.0924
     15 N         6.837724   4.668033   -3.555713 N.pl3        1 UNL1     -0.3170
     16 C         5.654398   3.880988   -3.33087 C.3        1 UNL1     0.1275
     17 N         4.773882   4.758555   -2.47513 N.2        1 UNL1     -0.2557
     18 C         4.94051   3.744479   -4.672298 C.3        1 UNL1     0.0016
     19 C         5.909478   3.147353   -5.680332 C.3        1 UNL1     0.0026
     20 N         6.354917   1.850553   -5.189495 N.3        1 UNL1     -0.3018
     21 C         6.999761   1.871392   -3.874918 C.3        1 UNL1     0.0026
     22 C         6.00714   2.470581   -2.877135 C.3        1 UNL1     0.0016
     23 C         7.038972   1.069443   -6.200721 C.3        1 UNL1     0.0012
     24 C         6.056549   0.119117   -6.903205 C.3        1 UNL1     -0.0339
     25 C         6.737367   -1.201386   -7.299203 C.3        1 UNL1     -0.0615
     26 C         4.842973   -0.120005   -6.021824 C.3        1 UNL1     -0.0615
     27 C         5.052418   9.714974   -2.130744 C.ar        1 UNL1     0.1347
     28 C         3.967169   9.862717   -1.285489 C.ar        1 UNL1     0.0342
     29 C         3.412031   8.648452   -0.82882 C.ar        1 UNL1     0.1435
     30 C         3.885867   7.400081   -1.23412 C.ar        1 UNL1     0.0774
     31 O         2.282537   8.624432   -0.088095 O.3        1 UNL1     -0.4436
     32 C         1.786663   7.284325   -0.226276 C.3        1 UNL1     0.3143
     33 C         2.996167   6.450789   -0.598475 C.2        1 UNL1     0.2504
     34 C         3.263476   11.153573   -0.971472 C.3        1 UNL1     -0.0327
     35 O         1.364524   6.850295   1.072442 O.2        1 UNL1     -0.4528
     36 C         -1.467268   4.393283   0.479035 C.3        1 UNL1     0.0854
     37 C         -1.470772   3.062606   -0.367611 C.3        1 UNL1     0.0236
     38 C         -1.940863   1.754225   0.431699 C.3        1 UNL1     0.1131
     39 C         -1.280063   1.406393   1.826197 C.3        1 UNL1     0.0200
     40 C         0.369372   1.53947   2.036176 C.3        1 UNL1     0.0661
     41 C         1.556831   0.890951   1.012958 C.3        1 UNL1     0.0091
     42 C         3.23391   1.506637   0.596136 C.3        1 UNL1     0.0661
     43 C         6.596414   8.381687   -3.581977 C.2        1 UNL1     0.2131
     44 O         6.920417   9.30219   -4.310285 O.2        1 UNL1     -0.2851
     45 O         5.731924   10.849741   -2.568937 O.3        1 UNL1     -0.5056
     46 O         3.190962   5.273129   -0.395927 O.2        1 UNL1     -0.2836
     47 C         5.071328   2.258304   2.378467 C.3        1 UNL1     -0.0566
     48 O         3.891668   0.193914   0.804054 O.3        1 UNL1     -0.3909
     49 C         0.905489   0.471143   -0.285892 C.3        1 UNL1     -0.0577
     50 O         0.722112   2.855396   2.412523 O.3        1 UNL1     -0.3910
     51 O         -1.704702   4.244979   1.860723 O.3        1 UNL1     -0.3753
     52 C         -0.298984   3.028268   -1.40235 C.3        1 UNL1     -0.0564
     53 O         -2.271409   0.592613   -0.459213 O.3        1 UNL1     -0.4608
     54 C         -2.003725   -0.722675   -0.183003 C.2        1 UNL1     0.3042
     55 O         -2.619465   -1.465882   0.580112 O.2        1 UNL1     -0.2512
     56 C         -0.852675   -1.280444   -0.970843 C.3        1 UNL1     0.0332
     57 C         -2.227294   1.999896   2.970174 C.3        1 UNL1     -0.0567
     58 C         0.805889   7.301939   -1.42181 C.3        1 UNL1     0.0210
     59 C         -2.982602   4.701469   2.301691 C.3        1 UNL1     0.0372
     60 C         -0.239462   5.223124   0.341135 C.2        1 UNL1     -0.0208
     61 C         0.495598   5.839884   1.267439 C.2        1 UNL1     0.0882
     62 H         4.130489   3.449548   0.868473 H        1 UNL1     0.0365
     63 H         5.693421   4.549362   0.148835 H        1 UNL1     0.0576
     64 H         8.105659   2.751234   -0.517962 H        1 UNL1     0.0615
     65 H         7.559869   5.803739   -0.895038 H        1 UNL1     0.0622
     66 H         -2.28518   4.992516   0.054787 H        1 UNL1     0.0645
     67 H         -2.305707   3.198311   -1.076855 H        1 UNL1     0.0362
     68 H         -2.977308   2.043001   0.663888 H        1 UNL1     0.0741
     69 H         -1.463964   0.363618   2.04803 H        1 UNL1     0.0359
     70 H         0.492393   0.944763   2.961514 H        1 UNL1     0.0600
     71 H         1.718405   -0.08987   1.501671 H        1 UNL1     0.0348
     72 H         2.948958   2.011786   1.53045 H        1 UNL1     0.0602
     73 H         -0.046568   5.392932   -0.689013 H        1 UNL1     0.0628
     74 H         0.399854   5.674868   2.341143 H        1 UNL1     0.1022
     75 H         10.53757   5.178414   -3.789406 H        1 UNL1     0.0279
     76 H         11.498901   5.38675   -2.380244 H        1 UNL1     0.0279
     77 H         10.664271   3.823182   -2.746227 H        1 UNL1     0.0279
     78 H         8.680327   5.976693   -4.394668 H        1 UNL1     0.1553
     79 H         7.62404   4.330118   -4.079595 H        1 UNL1     0.1484
     80 H         4.055304   3.110027   -4.543273 H        1 UNL1     0.0317
     81 H         4.580436   4.717015   -5.024679 H        1 UNL1     0.0317
     82 H         6.763816   3.814229   -5.868204 H        1 UNL1     0.0428
     83 H         5.380646   3.060408   -6.629979 H        1 UNL1     0.0428
     84 H         7.252501   0.876792   -3.494517 H        1 UNL1     0.0428
     85 H         7.962716   2.399965   -3.900303 H        1 UNL1     0.0428
     86 H         6.458816   2.347887   -1.910221 H        1 UNL1     0.0317
     87 H         5.109222   1.843294   -2.81925 H        1 UNL1     0.0317
     88 H         7.449702   1.761808   -6.947196 H        1 UNL1     0.0429
     89 H         7.88617   0.517906   -5.773127 H        1 UNL1     0.0429
     90 H         5.676719   0.602178   -7.811277 H        1 UNL1     0.0308
     91 H         7.337782   -1.601573   -6.476734 H        1 UNL1     0.0233
     92 H         5.994287   -1.945336   -7.595815 H        1 UNL1     0.0233
     93 H         7.410936   -1.08325   -8.156631 H        1 UNL1     0.0233
     94 H         4.502755   -1.156503   -6.120619 H        1 UNL1     0.0233
     95 H         5.103074   0.050956   -4.973453 H        1 UNL1     0.0233
     96 H         4.01614   0.542429   -6.292931 H        1 UNL1     0.0233
     97 H         2.210906   11.11872   -1.236257 H        1 UNL1     0.0280
     98 H         3.296196   11.392847   0.099477 H        1 UNL1     0.0280
     99 H         3.734147   11.976703   -1.533631 H        1 UNL1     0.0280
     100 H         6.667105   10.807714   -2.47254 H        1 UNL1     0.2922
     101 H         4.172468   1.89003   2.872513 H        1 UNL1     0.0236
     102 H         5.507714   3.1075   2.903268 H        1 UNL1     0.0236
     103 H         5.808141   1.446272   2.496377 H        1 UNL1     0.0236
     104 H         3.466457   -0.230246   1.574932 H        1 UNL1     0.2098
     105 H         0.656628   1.29483   -0.950285 H        1 UNL1     0.0234
     106 H         1.438681   -0.306891   -0.832056 H        1 UNL1     0.0234
     107 H         0.0   -0.0   0.0 H        1 UNL1     0.0234
     108 H         1.688476   2.940199   2.299751 H        1 UNL1     0.2098
     109 H         -0.359581   3.852311   -2.126914 H        1 UNL1     0.0234
     110 H         0.690347   3.025681   -0.932285 H        1 UNL1     0.0234
     111 H         -0.31269   2.106356   -1.99887 H        1 UNL1     0.0234
     112 H         -0.688107   -2.327458   -0.698769 H        1 UNL1     0.0342
     113 H         -1.001609   -1.174486   -2.044358 H        1 UNL1     0.0342
     114 H         0.051578   -0.71675   -0.702999 H        1 UNL1     0.0342
     115 H         -2.216493   1.375411   3.874104 H        1 UNL1     0.0234
     116 H         -1.974639   3.018384   3.271666 H        1 UNL1     0.0234
     117 H         -3.299303   1.97809   2.708903 H        1 UNL1     0.0234
     118 H         -0.241581   7.164919   -1.100815 H        1 UNL1     0.0309
     119 H         0.879548   8.212695   -2.024555 H        1 UNL1     0.0309
     120 H         0.9697   6.467318   -2.11223 H        1 UNL1     0.0309
     121 H         -2.840715   5.67336   2.773551 H        1 UNL1     0.0524
     122 H         -3.689236   4.838074   1.466201 H        1 UNL1     0.0524
     123 H         -3.408243   3.998448   3.012103 H        1 UNL1     0.0524
@<TRIPOS>BOND
     1     1     2    1
     2     1    42    1
     3     2     3    2
     4     3     4    1
     5     4     5    2
     6     5     7    1
     7     6    75    1
     8     6    76    1
     9     6    77    1
    10     7     9   am
    11     9    10    1
    12    10    11    2
    13    10    43    1
    14    11    14    1
    15    11    15    1
    16    12    13   ar
    17    12    27   ar
    18    12    43    1
    19    13    14    1
    20    13    30   ar
    21    14    17    2
    22    15    16    1
    23    16    17    1
    24    16    18    1
    25    16    22    1
    26    18    19    1
    27    19    20    1
    28    20    21    1
    29    21    22    1
    30    23    24    1
    31    23    88    1
    32    23    89    1
    33    24    25    1
    34    24    26    1
    35    24    90    1
    36    25    91    1
    37    25    92    1
    38    25    93    1
    39    26    94    1
    40    26    95    1
    41    26    96    1
    42    27    28   ar
    43    28    29   ar
    44    29    30   ar
    45    29    31    1
    46    30    33    1
    47    31    32    1
    48    32    33    1
    49    32    35    1
    50    34    97    1
    51    34    98    1
    52    34    99    1
    53    35    61    1
    54    36    37    1
    55    36    60    1
    56    37    38    1
    57    38    39    1
    58    39    40    1
    59    40    41    1
    60    41    42    1
    61    45   100    1
    62    47   101    1
    63    47   102    1
    64    47   103    1
    65    48   104    1
    66    49   105    1
    67    49   106    1
    68    49   107    1
    69    50   108    1
    70    51    59    1
    71    52   109    1
    72    52   110    1
    73    52   111    1
    74    53    54    1
    75    54    55    2
    76    54    56    1
    77    56   112    1
    78    56   113    1
    79    56   114    1
    80    57   115    1
    81    57   116    1
    82    57   117    1
    83    58   118    1
    84    58   119    1
    85    58   120    1
    86    59   121    1
    87    59   122    1
    88    59   123    1
    89    60    61    2
    90     1    47    1
    91     1    62    1
    92     2    63    1
    93     3    64    1
    94     4    65    1
    95     5     6    1
    96     7     8    2
    97     9    78    1
    98    15    79    1
    99    18    80    1
   100    18    81    1
   101    19    82    1
   102    19    83    1
   103    20    23    1
   104    21    84    1
   105    21    85    1
   106    22    86    1
   107    22    87    1
   108    27    45    1
   109    28    34    1
   110    32    58    1
   111    33    46    2
   112    36    51    1
   113    36    66    1
   114    37    52    1
   115    37    67    1
   116    38    53    1
   117    38    68    1
   118    42    48    1
   119    42    72    1
   120    43    44    2
   121    60    73    1
   122    61    74    1
   123    39    69    1
   124    39    57    1
   125    40    70    1
   126    40    50    1
   127    41    71    1
   128    41    49    1
