@<TRIPOS>MOLECULE
*****
 123 128 0 0 0
SMALL
GASTEIGER

@<TRIPOS>ATOM
     1 C         5.062088   1.788767   1.089649 C.3        1 UNL1     0.0009
     2 C         6.869357   1.375494   1.085254 C.2        1 UNL1     -0.0787
     3 C         8.070353   0.985382   1.793398 C.2        1 UNL1     -0.0649
     4 C         9.585869   0.605509   1.141273 C.2        1 UNL1     -0.0542
     5 C         10.819523   -0.050294   1.376001 C.2        1 UNL1     0.0115
     6 C         11.690107   -0.737992   2.463419 C.3        1 UNL1     -0.0348
     7 C         11.755737   -0.415449   0.124141 C.2        1 UNL1     0.2441
     8 O         12.747354   0.23451   -0.177147 O.2        1 UNL1     -0.2702
     9 N         11.512487   -1.677678   -0.444857 N.am        1 UNL1     -0.2772
     10 C         10.535512   -1.589242   -1.409751 C.2        1 UNL1     0.1049
     11 C         9.287484   -1.615778   -0.978537 C.2        1 UNL1     0.0801
     12 C         9.851701   -0.275473   -3.425624 C.ar        1 UNL1     0.0753
     13 C         8.56377   -0.154585   -2.813065 C.ar        1 UNL1     0.0305
     14 C         8.202853   -0.933134   -1.630419 C.2        1 UNL1     0.0924
     15 N         8.799192   -1.925401   0.234819 N.pl3        1 UNL1     -0.3170
     16 C         7.364582   -1.968284   0.133287 C.3        1 UNL1     0.1275
     17 N         7.037269   -1.022148   -0.996057 N.2        1 UNL1     -0.2557
     18 C         6.987616   -3.36218   -0.35931 C.3        1 UNL1     0.0016
     19 C         7.580774   -4.390568   0.590517 C.3        1 UNL1     0.0026
     20 N         7.05792   -4.148348   1.928045 N.3        1 UNL1     -0.3018
     21 C         7.317284   -2.810546   2.464128 C.3        1 UNL1     0.0026
     22 C         6.708937   -1.793643   1.496803 C.3        1 UNL1     0.0016
     23 C         7.320075   -5.241756   2.842581 C.3        1 UNL1     0.0012
     24 C         6.471007   -6.46828   2.473152 C.3        1 UNL1     -0.0339
     25 C         6.05118   -7.258819   3.723292 C.3        1 UNL1     -0.0615
     26 C         5.267126   -6.040109   1.652105 C.3        1 UNL1     -0.0615
     27 C         10.146866   0.377131   -4.620239 C.ar        1 UNL1     0.1347
     28 C         9.226437   1.143047   -5.313229 C.ar        1 UNL1     0.0342
     29 C         7.980702   1.287599   -4.666381 C.ar        1 UNL1     0.1435
     30 C         7.682691   0.669223   -3.451465 C.ar        1 UNL1     0.0774
     31 O         6.943547   1.911983   -5.265931 O.3        1 UNL1     -0.4436
     32 C         5.784179   1.455394   -4.553005 C.3        1 UNL1     0.3143
     33 C         6.300057   1.016477   -3.197485 C.2        1 UNL1     0.2504
     34 C         9.388616   1.662638   -6.714593 C.3        1 UNL1     -0.0327
     35 O         4.944529   2.595072   -4.330801 O.2        1 UNL1     -0.4528
     36 C         1.388383   1.269614   -4.259549 C.3        1 UNL1     0.0854
     37 C         0.755299   0.164976   -3.328689 C.3        1 UNL1     0.0236
     38 C         -0.546902   0.630533   -2.516733 C.3        1 UNL1     0.1131
     39 C         -0.510762   1.970072   -1.676138 C.3        1 UNL1     0.0200
     40 C         0.811798   2.337304   -0.728292 C.3        1 UNL1     0.0661
     41 C         1.547275   1.301172   0.395591 C.3        1 UNL1     0.0091
     42 C         3.301109   1.161347   0.915126 C.3        1 UNL1     0.0661
     43 C         10.83398   -1.190711   -2.793385 C.2        1 UNL1     0.2131
     44 O         11.777091   -1.680491   -3.387856 O.2        1 UNL1     -0.2851
     45 O         11.438348   0.24404   -5.126003 O.3        1 UNL1     -0.5056
     46 O         5.709176   0.982377   -2.141289 O.2        1 UNL1     -0.2836
     47 C         4.834372   3.205763   1.681469 C.3        1 UNL1     -0.0566
     48 O         2.988882   1.141921   2.364696 O.3        1 UNL1     -0.3909
     49 C         1.041566   -0.105634   0.166135 C.3        1 UNL1     -0.0577
     50 O         1.799123   3.009163   -1.48428 O.3        1 UNL1     -0.3910
     51 O         0.847017   2.565224   -4.134046 O.3        1 UNL1     -0.3753
     52 C         1.847555   -0.754663   -2.691358 C.3        1 UNL1     -0.0564
     53 O         -1.324998   -0.508433   -1.92542 O.3        1 UNL1     -0.4608
     54 C         -1.955615   -0.493719   -0.708854 C.2        1 UNL1     0.3042
     55 O         -1.571365   -1.013797   0.337908 O.2        1 UNL1     -0.2512
     56 C         -3.22564   0.308567   -0.699457 C.3        1 UNL1     0.0332
     57 C         -1.115534   3.13192   -2.594035 C.3        1 UNL1     -0.0567
     58 C         5.263215   0.214215   -5.31432 C.3        1 UNL1     0.0210
     59 C         0.039419   2.986364   -5.232359 C.3        1 UNL1     0.0372
     60 C         2.866304   1.409826   -4.153484 C.2        1 UNL1     -0.0208
     61 C         3.627041   2.501872   -4.067121 C.2        1 UNL1     0.0882
     62 H         5.10629   1.907973   0.000362 H        1 UNL1     0.0365
     63 H         7.119102   1.565482   0.039309 H        1 UNL1     0.0576
     64 H         8.052281   0.735172   2.856495 H        1 UNL1     0.0615
     65 H         9.523337   0.964346   0.110346 H        1 UNL1     0.0622
     66 H         1.191875   0.915341   -5.281274 H        1 UNL1     0.0645
     67 H         0.324037   -0.565709   -4.034857 H        1 UNL1     0.0362
     68 H         -1.226214   0.832759   -3.358851 H        1 UNL1     0.0741
     69 H         -1.319596   1.952164   -0.957892 H        1 UNL1     0.0359
     70 H         0.372948   3.12398   -0.085164 H        1 UNL1     0.0600
     71 H         0.992566   1.584506   1.311549 H        1 UNL1     0.0348
     72 H         3.199727   2.154454   0.453851 H        1 UNL1     0.0602
     73 H         3.317655   0.457594   -4.283036 H        1 UNL1     0.0628
     74 H         3.245718   3.505481   -3.875807 H        1 UNL1     0.1022
     75 H         11.733188   -0.110234   3.385968 H        1 UNL1     0.0279
     76 H         11.327622   -1.690026   2.844607 H        1 UNL1     0.0279
     77 H         12.75334   -0.790081   2.18679 H        1 UNL1     0.0279
     78 H         11.177535   -2.317436   0.272495 H        1 UNL1     0.1553
     79 H         9.311055   -2.442564   0.925812 H        1 UNL1     0.1484
     80 H         5.894748   -3.442021   -0.404385 H        1 UNL1     0.0317
     81 H         7.356432   -3.53064   -1.376781 H        1 UNL1     0.0317
     82 H         8.680391   -4.363771   0.584526 H        1 UNL1     0.0428
     83 H         7.301447   -5.377237   0.219692 H        1 UNL1     0.0428
     84 H         6.846317   -2.628186   3.435079 H        1 UNL1     0.0428
     85 H         8.387342   -2.645618   2.651459 H        1 UNL1     0.0428
     86 H         6.79968   -0.840483   1.983875 H        1 UNL1     0.0317
     87 H         5.624252   -1.942328   1.430108 H        1 UNL1     0.0317
     88 H         8.380639   -5.51213   2.756572 H        1 UNL1     0.0429
     89 H         7.148425   -4.940446   3.883985 H        1 UNL1     0.0429
     90 H         7.057388   -7.12847   1.823137 H        1 UNL1     0.0308
     91 H         5.676678   -6.593777   4.507237 H        1 UNL1     0.0233
     92 H         5.279608   -7.991665   3.47586 H        1 UNL1     0.0233
     93 H         6.883352   -7.825819   4.157845 H        1 UNL1     0.0233
     94 H         4.478716   -6.797993   1.714214 H        1 UNL1     0.0233
     95 H         4.863772   -5.101332   2.041932 H        1 UNL1     0.0233
     96 H         5.530737   -5.901119   0.599889 H        1 UNL1     0.0233
     97 H         8.599903   1.311384   -7.373216 H        1 UNL1     0.0280
     98 H         9.349228   2.758968   -6.756612 H        1 UNL1     0.0280
     99 H         10.355511   1.326261   -7.123321 H        1 UNL1     0.0280
     100 H         12.122446   0.405504   -4.500255 H        1 UNL1     0.2922
     101 H         4.615544   3.908916   0.878135 H        1 UNL1     0.0236
     102 H         5.6574   3.545387   2.309374 H        1 UNL1     0.0236
     103 H         3.947504   3.243639   2.335857 H        1 UNL1     0.0236
     104 H         2.255118   1.769158   2.516798 H        1 UNL1     0.2098
     105 H         1.468584   -0.600262   -0.702664 H        1 UNL1     0.0234
     106 H         1.097928   -0.757618   1.037724 H        1 UNL1     0.0234
     107 H         -0.0   0.0   0.0 H        1 UNL1     0.0234
     108 H         2.623798   2.996024   -0.961301 H        1 UNL1     0.2098
     109 H         2.43299   -1.292463   -3.450139 H        1 UNL1     0.0234
     110 H         2.52487   -0.216438   -2.01957 H        1 UNL1     0.0234
     111 H         1.402097   -1.53059   -2.054607 H        1 UNL1     0.0234
     112 H         -3.665932   0.296693   0.302215 H        1 UNL1     0.0342
     113 H         -3.067877   1.329193   -1.044822 H        1 UNL1     0.0342
     114 H         -3.93813   -0.168837   -1.386193 H        1 UNL1     0.0342
     115 H         -1.655357   3.882319   -2.000167 H        1 UNL1     0.0234
     116 H         -0.369197   3.660205   -3.190647 H        1 UNL1     0.0234
     117 H         -1.912267   2.785242   -3.274456 H        1 UNL1     0.0234
     118 H         4.303843   0.412631   -5.823478 H        1 UNL1     0.0309
     119 H         5.981296   -0.175722   -6.042682 H        1 UNL1     0.0309
     120 H         5.026263   -0.620364   -4.645412 H        1 UNL1     0.0309
     121 H         0.067189   4.075222   -5.263572 H        1 UNL1     0.0524
     122 H         0.421444   2.616715   -6.198513 H        1 UNL1     0.0524
     123 H         -0.982251   2.641055   -5.101795 H        1 UNL1     0.0524
@<TRIPOS>BOND
     1     1     2    1
     2     1    42    1
     3     2     3    2
     4     3     4    1
     5     4     5    2
     6     5     7    1
     7     6    75    1
     8     6    76    1
     9     6    77    1
    10     7     9   am
    11     9    10    1
    12    10    11    2
    13    10    43    1
    14    11    14    1
    15    11    15    1
    16    12    13   ar
    17    12    27   ar
    18    12    43    1
    19    13    14    1
    20    13    30   ar
    21    14    17    2
    22    15    16    1
    23    16    17    1
    24    16    18    1
    25    16    22    1
    26    18    19    1
    27    19    20    1
    28    20    21    1
    29    21    22    1
    30    23    24    1
    31    23    88    1
    32    23    89    1
    33    24    25    1
    34    24    26    1
    35    24    90    1
    36    25    91    1
    37    25    92    1
    38    25    93    1
    39    26    94    1
    40    26    95    1
    41    26    96    1
    42    27    28   ar
    43    28    29   ar
    44    29    30   ar
    45    29    31    1
    46    30    33    1
    47    31    32    1
    48    32    33    1
    49    32    35    1
    50    34    97    1
    51    34    98    1
    52    34    99    1
    53    35    61    1
    54    36    37    1
    55    36    60    1
    56    37    38    1
    57    38    39    1
    58    39    40    1
    59    40    41    1
    60    41    42    1
    61    45   100    1
    62    47   101    1
    63    47   102    1
    64    47   103    1
    65    48   104    1
    66    49   105    1
    67    49   106    1
    68    49   107    1
    69    50   108    1
    70    51    59    1
    71    52   109    1
    72    52   110    1
    73    52   111    1
    74    53    54    1
    75    54    55    2
    76    54    56    1
    77    56   112    1
    78    56   113    1
    79    56   114    1
    80    57   115    1
    81    57   116    1
    82    57   117    1
    83    58   118    1
    84    58   119    1
    85    58   120    1
    86    59   121    1
    87    59   122    1
    88    59   123    1
    89    60    61    2
    90     1    47    1
    91     1    62    1
    92     2    63    1
    93     3    64    1
    94     4    65    1
    95     5     6    1
    96     7     8    2
    97     9    78    1
    98    15    79    1
    99    18    80    1
   100    18    81    1
   101    19    82    1
   102    19    83    1
   103    20    23    1
   104    21    84    1
   105    21    85    1
   106    22    86    1
   107    22    87    1
   108    27    45    1
   109    28    34    1
   110    32    58    1
   111    33    46    2
   112    36    51    1
   113    36    66    1
   114    37    52    1
   115    37    67    1
   116    38    53    1
   117    38    68    1
   118    42    48    1
   119    42    72    1
   120    43    44    2
   121    60    73    1
   122    61    74    1
   123    39    69    1
   124    39    57    1
   125    40    70    1
   126    40    50    1
   127    41    71    1
   128    41    49    1
