@<TRIPOS>MOLECULE
*****
 123 128 0 0 0
SMALL
GASTEIGER

@<TRIPOS>ATOM
     1 C         5.181941   1.715972   0.449662 C.3        1 UNL1     0.0009
     2 C         6.617833   2.510167   -0.413185 C.2        1 UNL1     -0.0787
     3 C         7.894275   2.401634   -1.087694 C.2        1 UNL1     -0.0649
     4 C         8.774455   3.628797   -1.853012 C.2        1 UNL1     -0.0542
     5 C         9.789694   3.912048   -2.799657 C.2        1 UNL1     0.0115
     6 C         10.907568   3.276723   -3.671462 C.3        1 UNL1     -0.0348
     7 C         9.890495   5.392927   -3.411069 C.2        1 UNL1     0.2441
     8 O         10.722438   6.210171   -3.041597 O.2        1 UNL1     -0.2702
     9 N         9.133356   5.60155   -4.576989 N.am        1 UNL1     -0.2772
     10 C         7.855478   5.997585   -4.255262 C.2        1 UNL1     0.1049
     11 C         7.005404   5.032611   -3.954562 C.2        1 UNL1     0.0801
     12 C         6.577758   7.616753   -2.839968 C.ar        1 UNL1     0.0753
     13 C         5.814481   6.495145   -2.383883 C.ar        1 UNL1     0.0305
     14 C         5.918217   5.186887   -3.026338 C.2        1 UNL1     0.0924
     15 N         7.11813   3.702408   -4.110708 N.pl3        1 UNL1     -0.3170
     16 C         5.846613   3.112534   -3.785828 C.3        1 UNL1     0.1275
     17 N         5.2235   4.074712   -2.804162 N.2        1 UNL1     -0.2557
     18 C         4.985217   3.17368   -5.043588 C.3        1 UNL1     0.0016
     19 C         5.727536   2.481435   -6.175554 C.3        1 UNL1     0.0026
     20 N         5.991324   1.10267   -5.787673 N.3        1 UNL1     -0.3018
     21 C         6.762392   0.940726   -4.553332 C.3        1 UNL1     0.0026
     22 C         5.996198   1.639535   -3.428829 C.3        1 UNL1     0.0016
     23 C         6.422525   0.277088   -6.898134 C.3        1 UNL1     0.0012
     24 C         5.258513   0.032489   -7.871275 C.3        1 UNL1     -0.0339
     25 C         5.331771   0.974969   -9.083885 C.3        1 UNL1     -0.0615
     26 C         5.233169   -1.425216   -8.29699 C.3        1 UNL1     -0.0615
     27 C         6.385296   8.887288   -2.30255 C.ar        1 UNL1     0.1347
     28 C         5.43488   9.165876   -1.336554 C.ar        1 UNL1     0.0342
     29 C         4.729146   8.037391   -0.867912 C.ar        1 UNL1     0.1435
     30 C         4.936537   6.752521   -1.371219 C.ar        1 UNL1     0.0774
     31 O         3.695017   8.160244   -0.007394 O.3        1 UNL1     -0.4436
     32 C         2.964237   6.931826   -0.1409 C.3        1 UNL1     0.3143
     33 C         3.967159   5.930546   -0.677368 C.2        1 UNL1     0.2504
     34 C         5.000198   10.536142   -0.896642 C.3        1 UNL1     -0.0327
     35 O         2.610096   6.501236   1.179111 O.2        1 UNL1     -0.4528
     36 C         -0.648353   4.58942   0.810929 C.3        1 UNL1     0.0854
     37 C         -0.968334   3.328353   -0.080612 C.3        1 UNL1     0.0236
     38 C         -1.57157   2.073537   0.715183 C.3        1 UNL1     0.1131
     39 C         -0.840091   1.541495   2.012926 C.3        1 UNL1     0.0200
     40 C         0.820357   1.385087   2.042729 C.3        1 UNL1     0.0661
     41 C         1.766301   0.606631   0.869355 C.3        1 UNL1     0.0091
     42 C         3.472187   0.956295   0.292213 C.3        1 UNL1     0.0661
     43 C         7.518414   7.399606   -3.967032 C.2        1 UNL1     0.2131
     44 O         7.919087   8.292986   -4.690959 O.2        1 UNL1     -0.2851
     45 O         7.201086   9.915702   -2.769764 O.3        1 UNL1     -0.5056
     46 O         3.976144   4.727306   -0.543248 O.2        1 UNL1     -0.2836
     47 C         5.585685   1.287954   1.886246 C.3        1 UNL1     -0.0566
     48 O         3.912009   -0.457508   0.374873 O.3        1 UNL1     -0.3909
     49 C         0.921799   0.376054   -0.363992 C.3        1 UNL1     -0.0577
     50 O         1.43135   2.600061   2.42776 O.3        1 UNL1     -0.3910
     51 O         -0.763787   4.40451   2.203737 O.3        1 UNL1     -0.3753
     52 C         0.066815   3.157716   -1.240051 C.3        1 UNL1     -0.0564
     53 O         -2.187396   1.036017   -0.177362 O.3        1 UNL1     -0.4608
     54 C         -2.427993   -0.268189   0.167732 C.2        1 UNL1     0.3042
     55 O         -1.868624   -1.272297   -0.271259 O.2        1 UNL1     -0.2512
     56 C         -3.461432   -0.423917   1.246836 C.3        1 UNL1     0.0332
     57 C         -1.547699   2.218812   3.277326 C.3        1 UNL1     -0.0567
     58 C         1.882994   7.180949   -1.218109 C.3        1 UNL1     0.0210
     59 C         -1.06393   5.587653   2.942624 C.3        1 UNL1     0.0372
     60 C         0.683087   5.209044   0.569075 C.2        1 UNL1     -0.0208
     61 C         1.605036   5.640692   1.430721 C.2        1 UNL1     0.0882
     62 H         4.713154   2.703514   0.537469 H        1 UNL1     0.0365
     63 H         6.359297   3.565999   -0.309031 H        1 UNL1     0.0576
     64 H         8.343959   1.431155   -1.309197 H        1 UNL1     0.0615
     65 H         8.2959   4.548375   -1.505385 H        1 UNL1     0.0622
     66 H         -1.390254   5.339974   0.50385 H        1 UNL1     0.0645
     67 H         -1.836153   3.641701   -0.686633 H        1 UNL1     0.0362
     68 H         -2.51321   2.517664   1.072375 H        1 UNL1     0.0741
     69 H         -1.176874   0.53317   2.213592 H        1 UNL1     0.0359
     70 H         0.934047   0.726534   2.925023 H        1 UNL1     0.0600
     71 H         1.806187   -0.413584   1.29892 H        1 UNL1     0.0348
     72 H         3.376505   1.447968   1.271201 H        1 UNL1     0.0602
     73 H         0.794896   5.402567   -0.468854 H        1 UNL1     0.0628
     74 H         1.59372   5.433187   2.501258 H        1 UNL1     0.1022
     75 H         10.927059   2.168283   -3.53724 H        1 UNL1     0.0279
     76 H         10.800402   3.380379   -4.748885 H        1 UNL1     0.0279
     77 H         11.917698   3.553551   -3.335747 H        1 UNL1     0.0279
     78 H         9.061883   4.730544   -5.098828 H        1 UNL1     0.1553
     79 H         7.776149   3.268274   -4.731571 H        1 UNL1     0.1484
     80 H         4.022126   2.68967   -4.841212 H        1 UNL1     0.0317
     81 H         4.763527   4.211136   -5.315967 H        1 UNL1     0.0317
     82 H         6.659893   3.005861   -6.431679 H        1 UNL1     0.0428
     83 H         5.096425   2.538179   -7.062983 H        1 UNL1     0.0428
     84 H         6.87803   -0.102117   -4.242015 H        1 UNL1     0.0428
     85 H         7.794124   1.301639   -4.665528 H        1 UNL1     0.0428
     86 H         6.517414   1.388342   -2.523719 H        1 UNL1     0.0317
     87 H         5.01454   1.168746   -3.295406 H        1 UNL1     0.0317
     88 H         7.218368   0.812105   -7.432628 H        1 UNL1     0.0429
     89 H         6.851362   -0.670525   -6.547558 H        1 UNL1     0.0429
     90 H         4.310654   0.20851   -7.348978 H        1 UNL1     0.0308
     91 H         6.28235   0.866904   -9.614755 H        1 UNL1     0.0233
     92 H         4.509914   0.778176   -9.776296 H        1 UNL1     0.0233
     93 H         5.245029   2.030339   -8.798391 H        1 UNL1     0.0233
     94 H         4.534224   -1.563627   -9.128949 H        1 UNL1     0.0233
     95 H         6.226286   -1.732678   -8.636326 H        1 UNL1     0.0233
     96 H         4.924163   -2.075922   -7.474151 H        1 UNL1     0.0233
     97 H         4.205498   10.493873   -0.157794 H        1 UNL1     0.0280
     98 H         5.817624   11.098684   -0.426943 H        1 UNL1     0.0280
     99 H         4.632883   11.103973   -1.767126 H        1 UNL1     0.0280
     100 H         6.736754   10.668992   -3.090033 H        1 UNL1     0.2922
     101 H         4.720614   0.872919   2.403021 H        1 UNL1     0.0236
     102 H         6.056922   2.088479   2.455524 H        1 UNL1     0.0236
     103 H         6.327364   0.471812   1.882161 H        1 UNL1     0.0236
     104 H         4.331542   -0.585314   1.248159 H        1 UNL1     0.2098
     105 H         0.711003   1.274636   -0.938385 H        1 UNL1     0.0234
     106 H         1.2813   -0.416259   -1.020442 H        1 UNL1     0.0234
     107 H         0.0   -0.0   0.0 H        1 UNL1     0.0234
     108 H         1.247141   3.252846   1.725117 H        1 UNL1     0.2098
     109 H         1.095089   3.050929   -0.86728 H        1 UNL1     0.0234
     110 H         -0.169246   2.322603   -1.908337 H        1 UNL1     0.0234
     111 H         0.080301   4.033316   -1.902689 H        1 UNL1     0.0234
     112 H         -3.590117   -1.483274   1.488804 H        1 UNL1     0.0342
     113 H         -3.214369   0.152921   2.136815 H        1 UNL1     0.0342
     114 H         -4.419142   -0.047713   0.861574 H        1 UNL1     0.0342
     115 H         -2.618638   1.977724   3.323749 H        1 UNL1     0.0234
     116 H         -1.10626   1.938911   4.235885 H        1 UNL1     0.0234
     117 H         -1.579379   3.320756   3.225782 H        1 UNL1     0.0234
     118 H         0.987479   7.673571   -0.800515 H        1 UNL1     0.0309
     119 H         2.249778   7.765367   -2.067889 H        1 UNL1     0.0309
     120 H         1.486368   6.250398   -1.638668 H        1 UNL1     0.0309
     121 H         -0.222152   6.270098   2.82845 H        1 UNL1     0.0524
     122 H         -1.962173   6.101912   2.562185 H        1 UNL1     0.0524
     123 H         -1.212588   5.348038   3.991709 H        1 UNL1     0.0524
@<TRIPOS>BOND
     1     1     2    1
     2     1    42    1
     3     2     3    2
     4     3     4    1
     5     4     5    2
     6     5     7    1
     7     6    75    1
     8     6    76    1
     9     6    77    1
    10     7     9   am
    11     9    10    1
    12    10    11    2
    13    10    43    1
    14    11    14    1
    15    11    15    1
    16    12    13   ar
    17    12    27   ar
    18    12    43    1
    19    13    14    1
    20    13    30   ar
    21    14    17    2
    22    15    16    1
    23    16    17    1
    24    16    18    1
    25    16    22    1
    26    18    19    1
    27    19    20    1
    28    20    21    1
    29    21    22    1
    30    23    24    1
    31    23    88    1
    32    23    89    1
    33    24    25    1
    34    24    26    1
    35    24    90    1
    36    25    91    1
    37    25    92    1
    38    25    93    1
    39    26    94    1
    40    26    95    1
    41    26    96    1
    42    27    28   ar
    43    28    29   ar
    44    29    30   ar
    45    29    31    1
    46    30    33    1
    47    31    32    1
    48    32    33    1
    49    32    35    1
    50    34    97    1
    51    34    98    1
    52    34    99    1
    53    35    61    1
    54    36    37    1
    55    36    60    1
    56    37    38    1
    57    38    39    1
    58    39    40    1
    59    40    41    1
    60    41    42    1
    61    45   100    1
    62    47   101    1
    63    47   102    1
    64    47   103    1
    65    48   104    1
    66    49   105    1
    67    49   106    1
    68    49   107    1
    69    50   108    1
    70    51    59    1
    71    52   109    1
    72    52   110    1
    73    52   111    1
    74    53    54    1
    75    54    55    2
    76    54    56    1
    77    56   112    1
    78    56   113    1
    79    56   114    1
    80    57   115    1
    81    57   116    1
    82    57   117    1
    83    58   118    1
    84    58   119    1
    85    58   120    1
    86    59   121    1
    87    59   122    1
    88    59   123    1
    89    60    61    2
    90     1    47    1
    91     1    62    1
    92     2    63    1
    93     3    64    1
    94     4    65    1
    95     5     6    1
    96     7     8    2
    97     9    78    1
    98    15    79    1
    99    18    80    1
   100    18    81    1
   101    19    82    1
   102    19    83    1
   103    20    23    1
   104    21    84    1
   105    21    85    1
   106    22    86    1
   107    22    87    1
   108    27    45    1
   109    28    34    1
   110    32    58    1
   111    33    46    2
   112    36    51    1
   113    36    66    1
   114    37    52    1
   115    37    67    1
   116    38    53    1
   117    38    68    1
   118    42    48    1
   119    42    72    1
   120    43    44    2
   121    60    73    1
   122    61    74    1
   123    39    69    1
   124    39    57    1
   125    40    70    1
   126    40    50    1
   127    41    71    1
   128    41    49    1
