@<TRIPOS>MOLECULE
*****
 123 128 0 0 0
SMALL
GASTEIGER

@<TRIPOS>ATOM
     1 C         5.167603   1.747048   0.492926 C.3        1 UNL1     0.0009
     2 C         6.604707   2.553008   -0.356895 C.2        1 UNL1     -0.0787
     3 C         7.886689   2.454657   -1.022399 C.2        1 UNL1     -0.0649
     4 C         8.764665   3.689771   -1.777388 C.2        1 UNL1     -0.0542
     5 C         9.784969   3.982424   -2.715691 C.2        1 UNL1     0.0115
     6 C         10.91315   3.35693   -3.581306 C.3        1 UNL1     -0.0348
     7 C         9.880882   5.465858   -3.321674 C.2        1 UNL1     0.2441
     8 O         10.70494   6.287125   -2.943555 O.2        1 UNL1     -0.2702
     9 N         9.130958   5.673451   -4.49243 N.am        1 UNL1     -0.2772
     10 C         7.848298   6.060417   -4.178801 C.2        1 UNL1     0.1049
     11 C         7.002158   5.089163   -3.887367 C.2        1 UNL1     0.0801
     12 C         6.550113   7.666985   -2.767778 C.ar        1 UNL1     0.0753
     13 C         5.790622   6.539149   -2.320824 C.ar        1 UNL1     0.0305
     14 C         5.907284   5.233632   -2.96663 C.2        1 UNL1     0.0924
     15 N         7.124404   3.760202   -4.046883 N.pl3        1 UNL1     -0.3170
     16 C         5.854299   3.161313   -3.733165 C.3        1 UNL1     0.1275
     17 N         5.217994   4.116409   -2.753047 N.2        1 UNL1     -0.2557
     18 C         5.001723   3.221072   -4.996986 C.3        1 UNL1     0.0016
     19 C         5.756621   2.537133   -6.125678 C.3        1 UNL1     0.0026
     20 N         6.026265   1.158818   -5.740232 N.3        1 UNL1     -0.3018
     21 C         6.789325   0.99777   -4.500808 C.3        1 UNL1     0.0026
     22 C         6.010565   1.688148   -3.379734 C.3        1 UNL1     0.0016
     23 C         6.470744   0.339521   -6.850113 C.3        1 UNL1     0.0012
     24 C         5.31542   0.090731   -7.8325 C.3        1 UNL1     -0.0339
     25 C         5.341514   1.094296   -8.997074 C.3        1 UNL1     -0.0615
     26 C         5.354476   -1.343819   -8.329814 C.3        1 UNL1     -0.0615
     27 C         6.345732   8.934559   -2.227774 C.ar        1 UNL1     0.1347
     28 C         5.386564   9.204075   -1.267874 C.ar        1 UNL1     0.0342
     29 C         4.684564   8.069684   -0.807964 C.ar        1 UNL1     0.1435
     30 C         4.903717   6.78776   -1.313795 C.ar        1 UNL1     0.0774
     31 O         3.643438   8.18328   0.045358 O.3        1 UNL1     -0.4436
     32 C         2.921412   6.950729   -0.09736 C.3        1 UNL1     0.3143
     33 C         3.934511   5.957493   -0.629644 C.2        1 UNL1     0.2504
     34 C         4.940056   10.570167   -0.826827 C.3        1 UNL1     -0.0327
     35 O         2.560384   6.513698   1.218662 O.2        1 UNL1     -0.4528
     36 C         -0.683175   4.582636   0.82065 C.3        1 UNL1     0.0854
     37 C         -0.988691   3.322444   -0.07718 C.3        1 UNL1     0.0236
     38 C         -1.589784   2.061321   0.710221 C.3        1 UNL1     0.1131
     39 C         -0.86444   1.529733   2.011589 C.3        1 UNL1     0.0200
     40 C         0.796699   1.383666   2.053029 C.3        1 UNL1     0.0661
     41 C         1.756059   0.61493   0.884148 C.3        1 UNL1     0.0091
     42 C         3.463865   0.977152   0.320592 C.3        1 UNL1     0.0661
     43 C         7.500308   7.459363   -3.888618 C.2        1 UNL1     0.2131
     44 O         7.900604   8.357556   -4.606776 O.2        1 UNL1     -0.2851
     45 O         7.158404   9.969569   -2.685767 O.3        1 UNL1     -0.5056
     46 O         3.950107   4.753911   -0.499259 O.2        1 UNL1     -0.2836
     47 C         5.563558   1.316978   1.931064 C.3        1 UNL1     -0.0566
     48 O         3.911981   -0.434117   0.402001 O.3        1 UNL1     -0.3909
     49 C         0.922037   0.383002   -0.356058 C.3        1 UNL1     -0.0577
     50 O         1.397196   2.601216   2.446347 O.3        1 UNL1     -0.3910
     51 O         -0.807586   4.392545   2.211987 O.3        1 UNL1     -0.3753
     52 C         0.055934   3.162028   -1.229558 C.3        1 UNL1     -0.0564
     53 O         -2.192535   1.022816   -0.19007 O.3        1 UNL1     -0.4608
     54 C         -2.427411   -0.283974   0.149139 C.2        1 UNL1     0.3042
     55 O         -1.858537   -1.283137   -0.288919 O.2        1 UNL1     -0.2512
     56 C         -3.467683   -0.449647   1.220167 C.3        1 UNL1     0.0332
     57 C         -1.585501   2.198539   3.272916 C.3        1 UNL1     -0.0567
     58 C         1.846497   7.196502   -1.181649 C.3        1 UNL1     0.0210
     59 C         -1.151483   5.565051   2.948757 C.3        1 UNL1     0.0372
     60 C         0.646058   5.211385   0.590487 C.2        1 UNL1     -0.0208
     61 C         1.558964   5.646056   1.460205 C.2        1 UNL1     0.0882
     62 H         4.69197   2.731339   0.580422 H        1 UNL1     0.0365
     63 H         6.338765   3.606856   -0.251301 H        1 UNL1     0.0576
     64 H         8.344086   1.487737   -1.243672 H        1 UNL1     0.0615
     65 H         8.277801   4.605206   -1.430367 H        1 UNL1     0.0622
     66 H         -1.427537   5.329493   0.510528 H        1 UNL1     0.0645
     67 H         -1.85403   3.632273   -0.688535 H        1 UNL1     0.0362
     68 H         -2.536785   2.498377   1.061923 H        1 UNL1     0.0741
     69 H         -1.196312   0.518675   2.206606 H        1 UNL1     0.0359
     70 H         0.908108   0.72302   2.934048 H        1 UNL1     0.0600
     71 H         1.799247   -0.406385   1.310771 H        1 UNL1     0.0348
     72 H         3.357954   1.465077   1.300402 H        1 UNL1     0.0602
     73 H         0.764206   5.408928   -0.445981 H        1 UNL1     0.0628
     74 H         1.541157   5.435057   2.529971 H        1 UNL1     0.1022
     75 H         10.957261   2.251589   -3.428632 H        1 UNL1     0.0279
     76 H         10.799741   3.440098   -4.659865 H        1 UNL1     0.0279
     77 H         11.91826   3.661219   -3.254405 H        1 UNL1     0.0279
     78 H         9.068784   4.803689   -5.017525 H        1 UNL1     0.1553
     79 H         7.789655   3.3322   -4.664289 H        1 UNL1     0.1484
     80 H         4.040254   2.730375   -4.803182 H        1 UNL1     0.0317
     81 H         4.775485   4.257981   -5.267702 H        1 UNL1     0.0317
     82 H         6.687494   3.068225   -6.373326 H        1 UNL1     0.0428
     83 H         5.131648   2.592752   -7.01751 H        1 UNL1     0.0428
     84 H         6.909265   -0.045317   -4.191946 H        1 UNL1     0.0428
     85 H         7.81955   1.365516   -4.604323 H        1 UNL1     0.0428
     86 H         6.526746   1.437338   -2.471637 H        1 UNL1     0.0317
     87 H         5.03095   1.210776   -3.254973 H        1 UNL1     0.0317
     88 H         7.267071   0.881237   -7.377087 H        1 UNL1     0.0429
     89 H         6.902982   -0.606496   -6.499405 H        1 UNL1     0.0429
     90 H         4.362495   0.197567   -7.300774 H        1 UNL1     0.0308
     91 H         6.291705   1.051444   -9.537819 H        1 UNL1     0.0233
     92 H         4.523147   0.898728   -9.693951 H        1 UNL1     0.0233
     93 H         5.214337   2.129827   -8.658937 H        1 UNL1     0.0233
     94 H         4.658308   -1.47292   -9.165588 H        1 UNL1     0.0233
     95 H         6.358837   -1.588294   -8.68682 H        1 UNL1     0.0233
     96 H         5.079744   -2.04782   -7.539324 H        1 UNL1     0.0233
     97 H         4.146567   10.520402   -0.087145 H        1 UNL1     0.0280
     98 H         5.752898   11.139813   -0.357735 H        1 UNL1     0.0280
     99 H         4.566709   11.135087   -1.696639 H        1 UNL1     0.0280
     100 H         6.691664   10.720424   -3.008245 H        1 UNL1     0.2922
     101 H         4.70052   0.883448   2.435913 H        1 UNL1     0.0236
     102 H         6.014483   2.122004   2.51036 H        1 UNL1     0.0236
     103 H         6.319561   0.514076   1.929851 H        1 UNL1     0.0236
     104 H         4.331318   -0.560507   1.275587 H        1 UNL1     0.2098
     105 H         0.70977   1.282076   -0.929137 H        1 UNL1     0.0234
     106 H         1.291301   -0.404931   -1.012361 H        1 UNL1     0.0234
     107 H         0.0   -0.0   0.0 H        1 UNL1     0.0234
     108 H         1.199573   3.25956   1.752591 H        1 UNL1     0.2098
     109 H         1.080666   3.04812   -0.849214 H        1 UNL1     0.0234
     110 H         -0.17664   2.335209   -1.909281 H        1 UNL1     0.0234
     111 H         0.077514   4.045036   -1.882074 H        1 UNL1     0.0234
     112 H         -3.600555   -1.511433   1.448859 H        1 UNL1     0.0342
     113 H         -3.224453   0.116014   2.118338 H        1 UNL1     0.0342
     114 H         -4.422096   -0.066388   0.833677 H        1 UNL1     0.0342
     115 H         -2.655208   1.950579   3.310752 H        1 UNL1     0.0234
     116 H         -1.149302   1.918349   4.233786 H        1 UNL1     0.0234
     117 H         -1.623753   3.300422   3.22462 H        1 UNL1     0.0234
     118 H         0.877871   7.49632   -0.744753 H        1 UNL1     0.0309
     119 H         2.14914   7.93992   -1.92592 H        1 UNL1     0.0309
     120 H         1.600198   6.288468   -1.742824 H        1 UNL1     0.0309
     121 H         -0.347006   6.287403   2.81318 H        1 UNL1     0.0524
     122 H         -2.081435   6.031297   2.582915 H        1 UNL1     0.0524
     123 H         -1.267429   5.326468   4.002194 H        1 UNL1     0.0524
@<TRIPOS>BOND
     1     1     2    1
     2     1    42    1
     3     2     3    2
     4     3     4    1
     5     4     5    2
     6     5     7    1
     7     6    75    1
     8     6    76    1
     9     6    77    1
    10     7     9   am
    11     9    10    1
    12    10    11    2
    13    10    43    1
    14    11    14    1
    15    11    15    1
    16    12    13   ar
    17    12    27   ar
    18    12    43    1
    19    13    14    1
    20    13    30   ar
    21    14    17    2
    22    15    16    1
    23    16    17    1
    24    16    18    1
    25    16    22    1
    26    18    19    1
    27    19    20    1
    28    20    21    1
    29    21    22    1
    30    23    24    1
    31    23    88    1
    32    23    89    1
    33    24    25    1
    34    24    26    1
    35    24    90    1
    36    25    91    1
    37    25    92    1
    38    25    93    1
    39    26    94    1
    40    26    95    1
    41    26    96    1
    42    27    28   ar
    43    28    29   ar
    44    29    30   ar
    45    29    31    1
    46    30    33    1
    47    31    32    1
    48    32    33    1
    49    32    35    1
    50    34    97    1
    51    34    98    1
    52    34    99    1
    53    35    61    1
    54    36    37    1
    55    36    60    1
    56    37    38    1
    57    38    39    1
    58    39    40    1
    59    40    41    1
    60    41    42    1
    61    45   100    1
    62    47   101    1
    63    47   102    1
    64    47   103    1
    65    48   104    1
    66    49   105    1
    67    49   106    1
    68    49   107    1
    69    50   108    1
    70    51    59    1
    71    52   109    1
    72    52   110    1
    73    52   111    1
    74    53    54    1
    75    54    55    2
    76    54    56    1
    77    56   112    1
    78    56   113    1
    79    56   114    1
    80    57   115    1
    81    57   116    1
    82    57   117    1
    83    58   118    1
    84    58   119    1
    85    58   120    1
    86    59   121    1
    87    59   122    1
    88    59   123    1
    89    60    61    2
    90     1    47    1
    91     1    62    1
    92     2    63    1
    93     3    64    1
    94     4    65    1
    95     5     6    1
    96     7     8    2
    97     9    78    1
    98    15    79    1
    99    18    80    1
   100    18    81    1
   101    19    82    1
   102    19    83    1
   103    20    23    1
   104    21    84    1
   105    21    85    1
   106    22    86    1
   107    22    87    1
   108    27    45    1
   109    28    34    1
   110    32    58    1
   111    33    46    2
   112    36    51    1
   113    36    66    1
   114    37    52    1
   115    37    67    1
   116    38    53    1
   117    38    68    1
   118    42    48    1
   119    42    72    1
   120    43    44    2
   121    60    73    1
   122    61    74    1
   123    39    69    1
   124    39    57    1
   125    40    70    1
   126    40    50    1
   127    41    71    1
   128    41    49    1
