@<TRIPOS>MOLECULE
*****
 123 128 0 0 0
SMALL
GASTEIGER

@<TRIPOS>ATOM
     1 C         0.05836   -0.411311   -4.784562 C.3        1 UNL1     0.0009
     2 C         0.758754   -1.676202   -5.944967 C.2        1 UNL1     -0.0787
     3 C         1.689916   -2.04129   -6.99172 C.2        1 UNL1     -0.0649
     4 C         1.967682   -3.576918   -7.648264 C.2        1 UNL1     -0.0542
     5 C         2.879826   -4.381289   -8.374941 C.2        1 UNL1     0.0115
     6 C         4.189722   -4.354979   -9.209687 C.3        1 UNL1     -0.0348
     7 C         2.71826   -5.977664   -8.325236 C.2        1 UNL1     0.2441
     8 O         2.218874   -6.624606   -9.235513 O.2        1 UNL1     -0.2702
     9 N         3.422438   -6.608813   -7.285074 N.am        1 UNL1     -0.2772
     10 C         2.652883   -6.658917   -6.145514 C.2        1 UNL1     0.1049
     11 C         2.651004   -5.571391   -5.396178 C.2        1 UNL1     0.0801
     12 C         0.377218   -7.282016   -5.314592 C.ar        1 UNL1     0.0753
     13 C         0.339259   -5.995351   -4.688764 C.ar        1 UNL1     0.0305
     14 C         1.52925   -5.15204   -4.600445 C.2        1 UNL1     0.0924
     15 N         3.442123   -4.485998   -5.446987 N.pl3        1 UNL1     -0.3170
     16 C         3.139653   -3.667842   -4.302703 C.3        1 UNL1     0.1275
     17 N         1.701315   -3.9894   -3.97788 N.2        1 UNL1     -0.2557
     18 C         3.966344   -4.199225   -3.135691 C.3        1 UNL1     0.0016
     19 C         5.432508   -4.198397   -3.538122 C.3        1 UNL1     0.0026
     20 N         5.822943   -2.837645   -3.880091 N.3        1 UNL1     -0.3018
     21 C         5.042077   -2.217718   -4.952615 C.3        1 UNL1     0.0026
     22 C         3.573332   -2.22495   -4.525261 C.3        1 UNL1     0.0016
     23 C         7.25894   -2.672992   -3.987078 C.3        1 UNL1     0.0012
     24 C         7.985708   -3.904716   -3.424567 C.3        1 UNL1     -0.0339
     25 C         9.137406   -4.346084   -4.342632 C.3        1 UNL1     -0.0615
     26 C         8.472108   -3.623108   -2.013577 C.3        1 UNL1     -0.0615
     27 C         -0.727456   -8.13004   -5.288773 C.ar        1 UNL1     0.1347
     28 C         -1.907106   -7.818781   -4.636396 C.ar        1 UNL1     0.0342
     29 C         -1.938498   -6.527053   -4.069282 C.ar        1 UNL1     0.1435
     30 C         -0.852263   -5.652471   -4.11848 C.ar        1 UNL1     0.0774
     31 O         -2.975201   -6.117455   -3.306078 O.3        1 UNL1     -0.4436
     32 C         -2.455715   -5.01199   -2.551787 C.3        1 UNL1     0.3143
     33 C         -1.283573   -4.495793   -3.361624 C.2        1 UNL1     0.2504
     34 C         -3.035264   -8.770951   -4.352263 C.3        1 UNL1     -0.0327
     35 O         -3.453799   -3.983883   -2.560444 O.2        1 UNL1     -0.4528
     36 C         -3.022928   -2.087753   0.699484 C.3        1 UNL1     0.0854
     37 C         -1.747141   -1.350773   1.26229 C.3        1 UNL1     0.0236
     38 C         -1.970536   0.190639   1.64424 C.3        1 UNL1     0.1131
     39 C         -2.638868   1.170075   0.597193 C.3        1 UNL1     0.0200
     40 C         -2.187957   1.126113   -1.008169 C.3        1 UNL1     0.0661
     41 C         -0.596536   1.159794   -1.59456 C.3        1 UNL1     0.0091
     42 C         0.138573   0.385813   -3.086529 C.3        1 UNL1     0.0661
     43 C         1.661607   -7.720326   -5.915 C.2        1 UNL1     0.2131
     44 O         1.946822   -8.886787   -6.116889 O.2        1 UNL1     -0.2851
     45 O         -0.623114   -9.345998   -5.961081 O.3        1 UNL1     -0.5056
     46 O         -0.823452   -3.376321   -3.392055 O.2        1 UNL1     -0.2836
     47 C         -0.856162   0.57904   -5.554519 C.3        1 UNL1     -0.0566
     48 O         0.846501   1.616209   -3.515575 O.3        1 UNL1     -0.3909
     49 C         0.352129   0.894364   -0.44692 C.3        1 UNL1     -0.0577
     50 O         -2.942865   0.162336   -1.714547 O.3        1 UNL1     -0.3910
     51 O         -4.141512   -1.270405   0.438438 O.3        1 UNL1     -0.3753
     52 C         -0.434578   -1.856026   0.579027 C.3        1 UNL1     -0.0564
     53 O         -0.871662   0.765243   2.489598 O.3        1 UNL1     -0.4608
     54 C         -0.376586   2.039305   2.391635 C.2        1 UNL1     0.3042
     55 O         0.803428   2.377725   2.308704 O.2        1 UNL1     -0.2512
     56 C         -1.442855   3.095545   2.327281 C.3        1 UNL1     0.0332
     57 C         -4.201595   1.239253   0.930769 C.3        1 UNL1     -0.0567
     58 C         -1.924266   -5.599825   -1.223802 C.3        1 UNL1     0.0210
     59 C         -5.223133   -1.423685   1.356298 C.3        1 UNL1     0.0372
     60 C         -2.790333   -2.900923   -0.525186 C.2        1 UNL1     -0.0208
     61 C         -3.501246   -2.992616   -1.649881 C.2        1 UNL1     0.0882
     62 H         -0.598376   -1.18475   -4.368387 H        1 UNL1     0.0365
     63 H         0.106638   -2.526939   -5.736493 H        1 UNL1     0.0576
     64 H         2.447046   -1.342155   -7.353759 H        1 UNL1     0.0615
     65 H         1.121024   -4.169817   -7.29172 H        1 UNL1     0.0622
     66 H         -3.299098   -2.802278   1.487665 H        1 UNL1     0.0645
     67 H         -1.593216   -1.803358   2.257295 H        1 UNL1     0.0362
     68 H         -2.711565   0.074989   2.44986 H        1 UNL1     0.0741
     69 H         -2.411298   2.18933   0.879576 H        1 UNL1     0.0359
     70 H         -2.594206   2.098325   -1.34703 H        1 UNL1     0.0600
     71 H         -0.465834   2.25056   -1.736346 H        1 UNL1     0.0348
     72 H         -0.946409   0.415008   -3.263383 H        1 UNL1     0.0602
     73 H         -1.976982   -3.562085   -0.356151 H        1 UNL1     0.0628
     74 H         -4.311227   -2.315961   -1.924303 H        1 UNL1     0.1022
     75 H         4.369591   -5.347769   -9.688279 H        1 UNL1     0.0279
     76 H         4.209218   -3.677752   -10.060599 H        1 UNL1     0.0279
     77 H         5.0894   -4.248792   -8.585984 H        1 UNL1     0.0279
     78 H         4.260319   -6.074142   -7.065621 H        1 UNL1     0.1553
     79 H         4.33286   -4.467139   -5.908684 H        1 UNL1     0.1484
     80 H         3.791893   -3.566888   -2.256781 H        1 UNL1     0.0317
     81 H         3.650459   -5.211431   -2.861266 H        1 UNL1     0.0317
     82 H         5.625804   -4.887422   -4.373462 H        1 UNL1     0.0428
     83 H         6.003682   -4.582545   -2.692402 H        1 UNL1     0.0428
     84 H         5.301908   -1.170377   -5.135302 H        1 UNL1     0.0428
     85 H         5.215298   -2.708303   -5.920415 H        1 UNL1     0.0428
     86 H         3.052947   -1.648632   -5.267585 H        1 UNL1     0.0317
     87 H         3.44645   -1.633799   -3.610091 H        1 UNL1     0.0317
     88 H         7.512927   -2.572696   -5.050434 H        1 UNL1     0.0429
     89 H         7.593186   -1.754029   -3.488519 H        1 UNL1     0.0429
     90 H         7.272787   -4.733025   -3.335899 H        1 UNL1     0.0308
     91 H         10.060579   -4.500947   -3.776177 H        1 UNL1     0.0233
     92 H         8.880346   -5.268524   -4.868592 H        1 UNL1     0.0233
     93 H         9.360944   -3.603835   -5.118475 H        1 UNL1     0.0233
     94 H         8.398794   -2.552176   -1.795481 H        1 UNL1     0.0233
     95 H         7.850113   -4.1578   -1.290259 H        1 UNL1     0.0233
     96 H         9.512681   -3.932318   -1.881035 H        1 UNL1     0.0233
     97 H         -3.305035   -8.780765   -3.300428 H        1 UNL1     0.0280
     98 H         -3.950824   -8.501466   -4.894836 H        1 UNL1     0.0280
     99 H         -2.738269   -9.792089   -4.642378 H        1 UNL1     0.0280
     100 H         -0.28452   -9.281421   -6.836756 H        1 UNL1     0.2922
     101 H         -1.472737   0.031841   -6.267306 H        1 UNL1     0.0236
     102 H         -0.30552   1.390786   -6.028697 H        1 UNL1     0.0236
     103 H         -1.577372   1.080569   -4.887796 H        1 UNL1     0.0236
     104 H         1.543413   1.350541   -4.147005 H        1 UNL1     0.2098
     105 H         1.384711   0.732698   -0.746 H        1 UNL1     0.0234
     106 H         0.302855   1.622731   0.362389 H        1 UNL1     0.0234
     107 H         0.0   0.0   0.0 H        1 UNL1     0.0234
     108 H         -2.615727   -0.717316   -1.444434 H        1 UNL1     0.2098
     109 H         -0.266055   -2.92931   0.744475 H        1 UNL1     0.0234
     110 H         -0.397586   -1.640485   -0.494247 H        1 UNL1     0.0234
     111 H         0.452518   -1.350141   0.982868 H        1 UNL1     0.0234
     112 H         -2.370554   2.71503   2.765377 H        1 UNL1     0.0342
     113 H         -1.132831   4.02047   2.811267 H        1 UNL1     0.0342
     114 H         -1.637871   3.322231   1.270045 H        1 UNL1     0.0342
     115 H         -4.760669   1.783259   0.157024 H        1 UNL1     0.0234
     116 H         -4.673549   0.262091   1.051028 H        1 UNL1     0.0234
     117 H         -4.434192   1.842208   1.825356 H        1 UNL1     0.0234
     118 H         -2.544661   -5.301414   -0.360629 H        1 UNL1     0.0309
     119 H         -1.836368   -6.690769   -1.24158 H        1 UNL1     0.0309
     120 H         -0.930263   -5.219719   -0.963833 H        1 UNL1     0.0309
     121 H         -5.888563   -0.570529   1.227133 H        1 UNL1     0.0524
     122 H         -5.81124   -2.335902   1.161288 H        1 UNL1     0.0524
     123 H         -4.849223   -1.456452   2.375715 H        1 UNL1     0.0524
@<TRIPOS>BOND
     1     1     2    1
     2     1    42    1
     3     2     3    2
     4     3     4    1
     5     4     5    2
     6     5     7    1
     7     6    75    1
     8     6    76    1
     9     6    77    1
    10     7     9   am
    11     9    10    1
    12    10    11    2
    13    10    43    1
    14    11    14    1
    15    11    15    1
    16    12    13   ar
    17    12    27   ar
    18    12    43    1
    19    13    14    1
    20    13    30   ar
    21    14    17    2
    22    15    16    1
    23    16    17    1
    24    16    18    1
    25    16    22    1
    26    18    19    1
    27    19    20    1
    28    20    21    1
    29    21    22    1
    30    23    24    1
    31    23    88    1
    32    23    89    1
    33    24    25    1
    34    24    26    1
    35    24    90    1
    36    25    91    1
    37    25    92    1
    38    25    93    1
    39    26    94    1
    40    26    95    1
    41    26    96    1
    42    27    28   ar
    43    28    29   ar
    44    29    30   ar
    45    29    31    1
    46    30    33    1
    47    31    32    1
    48    32    33    1
    49    32    35    1
    50    34    97    1
    51    34    98    1
    52    34    99    1
    53    35    61    1
    54    36    37    1
    55    36    60    1
    56    37    38    1
    57    38    39    1
    58    39    40    1
    59    40    41    1
    60    41    42    1
    61    45   100    1
    62    47   101    1
    63    47   102    1
    64    47   103    1
    65    48   104    1
    66    49   105    1
    67    49   106    1
    68    49   107    1
    69    50   108    1
    70    51    59    1
    71    52   109    1
    72    52   110    1
    73    52   111    1
    74    53    54    1
    75    54    55    2
    76    54    56    1
    77    56   112    1
    78    56   113    1
    79    56   114    1
    80    57   115    1
    81    57   116    1
    82    57   117    1
    83    58   118    1
    84    58   119    1
    85    58   120    1
    86    59   121    1
    87    59   122    1
    88    59   123    1
    89    60    61    2
    90     1    47    1
    91     1    62    1
    92     2    63    1
    93     3    64    1
    94     4    65    1
    95     5     6    1
    96     7     8    2
    97     9    78    1
    98    15    79    1
    99    18    80    1
   100    18    81    1
   101    19    82    1
   102    19    83    1
   103    20    23    1
   104    21    84    1
   105    21    85    1
   106    22    86    1
   107    22    87    1
   108    27    45    1
   109    28    34    1
   110    32    58    1
   111    33    46    2
   112    36    51    1
   113    36    66    1
   114    37    52    1
   115    37    67    1
   116    38    53    1
   117    38    68    1
   118    42    48    1
   119    42    72    1
   120    43    44    2
   121    60    73    1
   122    61    74    1
   123    39    69    1
   124    39    57    1
   125    40    70    1
   126    40    50    1
   127    41    71    1
   128    41    49    1
