@<TRIPOS>MOLECULE
*****
 123 128 0 0 0
SMALL
GASTEIGER

@<TRIPOS>ATOM
     1 C         1.380523   -3.045371   4.338103 C.3        1 UNL1     0.0009
     2 C         2.715026   -4.039253   5.155623 C.2        1 UNL1     -0.0787
     3 C         3.30758   -5.319758   5.480018 C.2        1 UNL1     -0.0649
     4 C         4.780506   -5.61706   6.260054 C.2        1 UNL1     -0.0542
     5 C         5.799747   -6.573596   6.490845 C.2        1 UNL1     0.0115
     6 C         6.183934   -8.068279   6.312956 C.3        1 UNL1     -0.0348
     7 C         7.226539   -6.073645   7.03057 C.2        1 UNL1     0.2441
     8 O         7.571632   -6.183347   8.199074 O.2        1 UNL1     -0.2702
     9 N         8.152544   -5.741234   6.026494 N.am        1 UNL1     -0.2772
     10 C         8.011579   -4.422235   5.660854 C.2        1 UNL1     0.1049
     11 C         7.062328   -4.160486   4.780722 C.2        1 UNL1     0.0801
     12 C         7.829814   -2.111586   6.601701 C.ar        1 UNL1     0.0753
     13 C         6.672632   -1.950493   5.774908 C.ar        1 UNL1     0.0305
     14 C         6.32979   -2.923899   4.740504 C.2        1 UNL1     0.0924
     15 N         6.33854   -4.996371   4.016553 N.pl3        1 UNL1     -0.3170
     16 C         5.561988   -4.197842   3.105745 C.3        1 UNL1     0.1275
     17 N         5.3638   -2.887045   3.827032 N.2        1 UNL1     -0.2557
     18 C         6.450223   -3.889907   1.904114 C.3        1 UNL1     0.0016
     19 C         6.949891   -5.201604   1.319843 C.3        1 UNL1     0.0026
     20 N         5.8013   -6.007483   0.929554 N.3        1 UNL1     -0.3018
     21 C         4.855207   -6.304468   2.007086 C.3        1 UNL1     0.0026
     22 C         4.362562   -4.972891   2.576382 C.3        1 UNL1     0.0016
     23 C         6.161897   -7.136648   0.095528 C.3        1 UNL1     0.0012
     24 C         6.602162   -6.658744   -1.297143 C.3        1 UNL1     -0.0339
     25 C         8.132403   -6.545498   -1.395089 C.3        1 UNL1     -0.0615
     26 C         6.040301   -7.580323   -2.365685 C.3        1 UNL1     -0.0615
     27 C         8.217293   -1.121653   7.501708 C.ar        1 UNL1     0.1347
     28 C         7.552407   0.084265   7.634895 C.ar        1 UNL1     0.0342
     29 C         6.388158   0.200385   6.846096 C.ar        1 UNL1     0.1435
     30 C         5.967434   -0.797888   5.966514 C.ar        1 UNL1     0.0774
     31 O         5.692957   1.356913   6.781726 O.3        1 UNL1     -0.4436
     32 C         4.917007   1.247151   5.578926 C.3        1 UNL1     0.3143
     33 C         4.798493   -0.240893   5.318364 C.2        1 UNL1     0.2504
     34 C         8.048926   1.286256   8.389074 C.3        1 UNL1     -0.0327
     35 O         3.599316   1.724742   5.877002 O.2        1 UNL1     -0.4528
     36 C         2.260357   3.176017   2.635231 C.3        1 UNL1     0.0854
     37 C         2.085825   2.481692   1.229894 C.3        1 UNL1     0.0236
     38 C         0.605053   2.555779   0.618691 C.3        1 UNL1     0.1131
     39 C         -0.631703   2.116509   1.501724 C.3        1 UNL1     0.0200
     40 C         -0.55702   0.734027   2.432103 C.3        1 UNL1     0.0661
     41 C         -0.057205   -0.796785   1.898805 C.3        1 UNL1     0.0091
     42 C         0.807475   -2.144848   2.793489 C.3        1 UNL1     0.0661
     43 C         8.654897   -3.329321   6.405188 C.2        1 UNL1     0.2131
     44 O         9.82476   -3.409851   6.733325 O.2        1 UNL1     -0.2851
     45 O         9.329225   -1.376571   8.301746 O.3        1 UNL1     -0.5056
     46 O         3.924391   -0.83524   4.72798 O.2        1 UNL1     -0.2836
     47 C         0.066579   -3.126992   5.160824 C.3        1 UNL1     -0.0566
     48 O         -0.111767   -3.205953   2.315822 O.3        1 UNL1     -0.3909
     49 C         0.62699   -0.647161   0.558288 C.3        1 UNL1     -0.0577
     50 O         0.005729   1.012001   3.698502 O.3        1 UNL1     -0.3910
     51 O         1.074006   3.617332   3.255911 O.3        1 UNL1     -0.3753
     52 C         2.976565   1.203372   1.09787 C.3        1 UNL1     -0.0564
     53 O         0.539783   2.211662   -0.840641 O.3        1 UNL1     -0.4608
     54 C         -0.588581   1.829072   -1.517656 C.2        1 UNL1     0.3042
     55 O         -0.835457   0.720833   -1.991678 O.2        1 UNL1     -0.2512
     56 C         -1.628253   2.909248   -1.612591 C.3        1 UNL1     0.0332
     57 C         -1.237024   3.43551   2.174029 C.3        1 UNL1     -0.0567
     58 C         5.763333   1.884977   4.452677 C.3        1 UNL1     0.0210
     59 C         1.240046   4.711119   4.156981 C.3        1 UNL1     0.0372
     60 C         3.000366   2.372444   3.646082 C.2        1 UNL1     -0.0208
     61 C         2.735892   2.147724   4.933831 C.2        1 UNL1     0.0882
     62 H         1.893258   -2.129986   4.657297 H        1 UNL1     0.0365
     63 H         3.284352   -3.248738   5.649003 H        1 UNL1     0.0576
     64 H         2.904686   -6.254049   5.08267 H        1 UNL1     0.0615
     65 H         5.051814   -4.646167   6.683425 H        1 UNL1     0.0622
     66 H         2.886912   4.055986   2.432429 H        1 UNL1     0.0645
     67 H         2.642407   3.136022   0.53662 H        1 UNL1     0.0362
     68 H         0.508235   3.64606   0.502781 H        1 UNL1     0.0741
     69 H         -1.472004   1.918445   0.849747 H        1 UNL1     0.0359
     70 H         -1.63442   0.582567   2.635402 H        1 UNL1     0.0600
     71 H         -1.03345   -1.224798   1.597627 H        1 UNL1     0.0348
     72 H         0.3716   -1.497532   3.568286 H        1 UNL1     0.0602
     73 H         3.923347   2.052419   3.230222 H        1 UNL1     0.0628
     74 H         1.791221   2.391601   5.421026 H        1 UNL1     0.1022
     75 H         5.359955   -8.627348   5.807451 H        1 UNL1     0.0279
     76 H         7.036808   -8.276873   5.670955 H        1 UNL1     0.0279
     77 H         6.255397   -8.605793   7.269863 H        1 UNL1     0.0279
     78 H         7.978743   -6.308627   5.19949 H        1 UNL1     0.1553
     79 H         6.607471   -5.942277   3.816875 H        1 UNL1     0.1484
     80 H         5.871164   -3.318598   1.168544 H        1 UNL1     0.0317
     81 H         7.29698   -3.25896   2.194905 H        1 UNL1     0.0317
     82 H         7.59194   -5.744745   2.028844 H        1 UNL1     0.0428
     83 H         7.582562   -4.958795   0.465547 H        1 UNL1     0.0428
     84 H         3.962894   -6.842061   1.671551 H        1 UNL1     0.0428
     85 H         5.295066   -6.965471   2.766636 H        1 UNL1     0.0428
     86 H         3.578389   -5.225177   3.265883 H        1 UNL1     0.0317
     87 H         3.841956   -4.402141   1.797723 H        1 UNL1     0.0317
     88 H         7.00509   -7.655889   0.569564 H        1 UNL1     0.0429
     89 H         5.338429   -7.858871   0.024333 H        1 UNL1     0.0429
     90 H         6.165767   -5.672104   -1.492886 H        1 UNL1     0.0308
     91 H         8.617346   -7.498744   -1.164322 H        1 UNL1     0.0233
     92 H         8.432691   -6.223122   -2.394844 H        1 UNL1     0.0233
     93 H         8.541686   -5.803577   -0.698759 H        1 UNL1     0.0233
     94 H         6.502677   -7.361613   -3.334298 H        1 UNL1     0.0233
     95 H         6.260521   -8.621645   -2.114458 H        1 UNL1     0.0233
     96 H         4.957613   -7.462573   -2.465138 H        1 UNL1     0.0233
     97 H         7.368118   2.128317   8.307442 H        1 UNL1     0.0280
     98 H         8.152688   1.086758   9.463639 H        1 UNL1     0.0280
     99 H         9.028842   1.594097   7.988956 H        1 UNL1     0.0280
     100 H         10.000583   -0.718408   8.260252 H        1 UNL1     0.2922
     101 H         -0.698077   -2.505729   4.695003 H        1 UNL1     0.0236
     102 H         0.204576   -2.884856   6.214062 H        1 UNL1     0.0236
     103 H         -0.360165   -4.143891   5.159835 H        1 UNL1     0.0236
     104 H         -0.801415   -3.327543   2.997418 H        1 UNL1     0.2098
     105 H         1.614229   -0.194507   0.605988 H        1 UNL1     0.0234
     106 H         0.656967   -1.556585   -0.041691 H        1 UNL1     0.0234
     107 H         0.0   0.0   -0.0 H        1 UNL1     0.0234
     108 H         0.930122   1.290117   3.550458 H        1 UNL1     0.2098
     109 H         2.739891   0.450639   1.862782 H        1 UNL1     0.0234
     110 H         2.926496   0.744621   0.1045 H        1 UNL1     0.0234
     111 H         4.041483   1.436715   1.229957 H        1 UNL1     0.0234
     112 H         -2.502793   2.537398   -2.155041 H        1 UNL1     0.0342
     113 H         -1.910128   3.293558   -0.63346 H        1 UNL1     0.0342
     114 H         -1.204546   3.743623   -2.188312 H        1 UNL1     0.0342
     115 H         -1.554745   4.169104   1.420318 H        1 UNL1     0.0234
     116 H         -2.089596   3.248287   2.829862 H        1 UNL1     0.0234
     117 H         -0.493232   4.021208   2.741192 H        1 UNL1     0.0234
     118 H         5.658709   2.983797   4.427063 H        1 UNL1     0.0309
     119 H         6.825456   1.6277   4.515188 H        1 UNL1     0.0309
     120 H         5.434912   1.576658   3.454085 H        1 UNL1     0.0309
     121 H         1.896342   4.379205   4.961011 H        1 UNL1     0.0524
     122 H         1.718039   5.580656   3.675873 H        1 UNL1     0.0524
     123 H         0.278204   5.015583   4.55979 H        1 UNL1     0.0524
@<TRIPOS>BOND
     1     1     2    1
     2     1    42    1
     3     2     3    2
     4     3     4    1
     5     4     5    2
     6     5     7    1
     7     6    75    1
     8     6    76    1
     9     6    77    1
    10     7     9   am
    11     9    10    1
    12    10    11    2
    13    10    43    1
    14    11    14    1
    15    11    15    1
    16    12    13   ar
    17    12    27   ar
    18    12    43    1
    19    13    14    1
    20    13    30   ar
    21    14    17    2
    22    15    16    1
    23    16    17    1
    24    16    18    1
    25    16    22    1
    26    18    19    1
    27    19    20    1
    28    20    21    1
    29    21    22    1
    30    23    24    1
    31    23    88    1
    32    23    89    1
    33    24    25    1
    34    24    26    1
    35    24    90    1
    36    25    91    1
    37    25    92    1
    38    25    93    1
    39    26    94    1
    40    26    95    1
    41    26    96    1
    42    27    28   ar
    43    28    29   ar
    44    29    30   ar
    45    29    31    1
    46    30    33    1
    47    31    32    1
    48    32    33    1
    49    32    35    1
    50    34    97    1
    51    34    98    1
    52    34    99    1
    53    35    61    1
    54    36    37    1
    55    36    60    1
    56    37    38    1
    57    38    39    1
    58    39    40    1
    59    40    41    1
    60    41    42    1
    61    45   100    1
    62    47   101    1
    63    47   102    1
    64    47   103    1
    65    48   104    1
    66    49   105    1
    67    49   106    1
    68    49   107    1
    69    50   108    1
    70    51    59    1
    71    52   109    1
    72    52   110    1
    73    52   111    1
    74    53    54    1
    75    54    55    2
    76    54    56    1
    77    56   112    1
    78    56   113    1
    79    56   114    1
    80    57   115    1
    81    57   116    1
    82    57   117    1
    83    58   118    1
    84    58   119    1
    85    58   120    1
    86    59   121    1
    87    59   122    1
    88    59   123    1
    89    60    61    2
    90     1    47    1
    91     1    62    1
    92     2    63    1
    93     3    64    1
    94     4    65    1
    95     5     6    1
    96     7     8    2
    97     9    78    1
    98    15    79    1
    99    18    80    1
   100    18    81    1
   101    19    82    1
   102    19    83    1
   103    20    23    1
   104    21    84    1
   105    21    85    1
   106    22    86    1
   107    22    87    1
   108    27    45    1
   109    28    34    1
   110    32    58    1
   111    33    46    2
   112    36    51    1
   113    36    66    1
   114    37    52    1
   115    37    67    1
   116    38    53    1
   117    38    68    1
   118    42    48    1
   119    42    72    1
   120    43    44    2
   121    60    73    1
   122    61    74    1
   123    39    69    1
   124    39    57    1
   125    40    70    1
   126    40    50    1
   127    41    71    1
   128    41    49    1
