@<TRIPOS>MOLECULE
*****
 123 128 0 0 0
SMALL
GASTEIGER

@<TRIPOS>ATOM
     1 C         -4.179711   0.192928   0.313824 C.3        1 UNL1     0.0009
     2 C         -5.399074   0.478909   -1.053072 C.2        1 UNL1     -0.0787
     3 C         -6.308742   1.354037   -1.762086 C.2        1 UNL1     -0.0649
     4 C         -7.164104   1.031819   -3.187178 C.2        1 UNL1     -0.0542
     5 C         -7.84463   1.607673   -4.288248 C.2        1 UNL1     0.0115
     6 C         -8.412145   2.936165   -4.859526 C.3        1 UNL1     -0.0348
     7 C         -8.106208   0.712045   -5.594547 C.2        1 UNL1     0.2441
     8 O         -9.190807   0.206329   -5.848363 O.2        1 UNL1     -0.2702
     9 N         -7.083704   0.762831   -6.557904 N.am        1 UNL1     -0.2772
     10 C         -6.128109   -0.191564   -6.294673 C.2        1 UNL1     0.1049
     11 C         -5.212049   0.133141   -5.400456 C.2        1 UNL1     0.0801
     12 C         -5.843018   -2.618976   -5.762012 C.ar        1 UNL1     0.0753
     13 C         -5.017983   -2.201843   -4.669343 C.ar        1 UNL1     0.0305
     14 C         -4.570093   -0.817632   -4.53368 C.2        1 UNL1     0.0924
     15 N         -4.928049   1.325284   -4.84849 N.pl3        1 UNL1     -0.3170
     16 C         -3.731194   1.17262   -4.064598 C.3        1 UNL1     0.1275
     17 N         -3.732217   -0.279165   -3.652236 N.2        1 UNL1     -0.2557
     18 C         -2.546333   1.343354   -5.01046 C.3        1 UNL1     0.0016
     19 C         -2.67179   2.687723   -5.709403 C.3        1 UNL1     0.0026
     20 N         -2.693301   3.738752   -4.701483 N.3        1 UNL1     -0.3018
     21 C         -3.762902   3.6254   -3.707766 C.3        1 UNL1     0.0026
     22 C         -3.614913   2.269789   -3.014719 C.3        1 UNL1     0.0016
     23 C         -2.50945   5.062277   -5.262842 C.3        1 UNL1     0.0012
     24 C         -1.066862   5.240022   -5.761946 C.3        1 UNL1     -0.0339
     25 C         -0.834971   4.496971   -7.087902 C.3        1 UNL1     -0.0615
     26 C         -0.736274   6.717396   -5.883833 C.3        1 UNL1     -0.0615
     27 C         -6.165914   -3.960606   -5.95145 C.ar        1 UNL1     0.1347
     28 C         -5.692124   -4.976285   -5.140299 C.ar        1 UNL1     0.0342
     29 C         -4.921843   -4.536938   -4.042662 C.ar        1 UNL1     0.1435
     30 C         -4.620224   -3.192888   -3.819559 C.ar        1 UNL1     0.0774
     31 O         -4.297776   -5.412076   -3.224322 O.3        1 UNL1     -0.4436
     32 C         -3.279931   -4.63704   -2.573027 C.3        1 UNL1     0.3143
     33 C         -3.762021   -3.202691   -2.653301 C.2        1 UNL1     0.2504
     34 C         -5.787547   -6.449318   -5.425199 C.3        1 UNL1     -0.0327
     35 O         -3.28723   -5.002698   -1.187569 O.2        1 UNL1     -0.4528
     36 C         0.278695   -4.542162   0.029056 C.3        1 UNL1     0.0854
     37 C         1.182563   -3.250013   -0.000855 C.3        1 UNL1     0.0236
     38 C         1.782966   -2.812162   1.420252 C.3        1 UNL1     0.1131
     39 C         0.821469   -2.667999   2.668055 C.3        1 UNL1     0.0200
     40 C         -0.65883   -1.915243   2.5115 C.3        1 UNL1     0.0661
     41 C         -0.934013   -0.404357   1.791009 C.3        1 UNL1     0.0091
     42 C         -2.381738   0.221165   0.853875 C.3        1 UNL1     0.0661
     43 C         -6.269992   -1.586287   -6.738488 C.2        1 UNL1     0.2131
     44 O         -6.619091   -1.84007   -7.877111 O.2        1 UNL1     -0.2851
     45 O         -7.011556   -4.27697   -7.012696 O.3        1 UNL1     -0.5056
     46 O         -3.511882   -2.28091   -1.909256 O.2        1 UNL1     -0.2836
     47 C         -4.915421   0.065614   1.674891 C.3        1 UNL1     -0.0566
     48 O         -2.453294   1.502276   1.597346 O.3        1 UNL1     -0.3909
     49 C         0.300801   -0.000921   1.016434 C.3        1 UNL1     -0.0577
     50 O         -1.64777   -2.835791   2.096394 O.3        1 UNL1     -0.3910
     51 O         -0.031609   -5.04744   1.308054 O.3        1 UNL1     -0.3753
     52 C         0.668702   -2.204538   -1.043869 C.3        1 UNL1     -0.0564
     53 O         2.899916   -1.814935   1.318814 O.3        1 UNL1     -0.4608
     54 C         3.710568   -1.421285   2.351196 C.2        1 UNL1     0.3042
     55 O         4.436004   -2.133312   3.044449 O.2        1 UNL1     -0.2512
     56 C         3.714898   0.063425   2.579958 C.3        1 UNL1     0.0332
     57 C         0.875214   -4.04499   3.479954 C.3        1 UNL1     -0.0567
     58 C         -2.002335   -4.782754   -3.432123 C.3        1 UNL1     0.0210
     59 C         -0.896117   -6.182555   1.310548 C.3        1 UNL1     0.0372
     60 C         -1.007659   -4.427029   -0.710672 C.2        1 UNL1     -0.0208
     61 C         -2.240251   -4.800892   -0.36471 C.2        1 UNL1     0.0882
     62 H         -4.031075   -0.827941   -0.058259 H        1 UNL1     0.0365
     63 H         -5.464214   -0.523702   -1.480855 H        1 UNL1     0.0576
     64 H         -6.399974   2.412352   -1.507618 H        1 UNL1     0.0615
     65 H         -7.07563   -0.051598   -3.304921 H        1 UNL1     0.0622
     66 H         0.866223   -5.302403   -0.504696 H        1 UNL1     0.0645
     67 H         2.093715   -3.572489   -0.534119 H        1 UNL1     0.0362
     68 H         2.408974   -3.691815   1.63437 H        1 UNL1     0.0741
     69 H         1.31489   -2.066729   3.419998 H        1 UNL1     0.0359
     70 H         -0.889018   -1.723755   3.577055 H        1 UNL1     0.0600
     71 H         -0.855983   0.251063   2.680556 H        1 UNL1     0.0348
     72 H         -2.743049   -0.644429   1.42791 H        1 UNL1     0.0602
     73 H         -0.813889   -4.085828   -1.697224 H        1 UNL1     0.0628
     74 H         -2.532688   -5.106382   0.640473 H        1 UNL1     0.1022
     75 H         -9.004632   3.475869   -4.081893 H        1 UNL1     0.0279
     76 H         -7.683332   3.685338   -5.160591 H        1 UNL1     0.0279
     77 H         -9.172412   2.774083   -5.637617 H        1 UNL1     0.0279
     78 H         -6.626522   1.671623   -6.523859 H        1 UNL1     0.1553
     79 H         -5.211265   2.203381   -5.243037 H        1 UNL1     0.1484
     80 H         -1.615938   1.277119   -4.433619 H        1 UNL1     0.0317
     81 H         -2.51551   0.535031   -5.748914 H        1 UNL1     0.0317
     82 H         -3.566589   2.732892   -6.347532 H        1 UNL1     0.0428
     83 H         -1.817995   2.78816   -6.380221 H        1 UNL1     0.0428
     84 H         -3.70885   4.380215   -2.917106 H        1 UNL1     0.0428
     85 H         -4.754632   3.778449   -4.155387 H        1 UNL1     0.0428
     86 H         -4.325718   2.27723   -2.209307 H        1 UNL1     0.0317
     87 H         -2.648103   2.215923   -2.499479 H        1 UNL1     0.0317
     88 H         -3.190491   5.168448   -6.117362 H        1 UNL1     0.0429
     89 H         -2.777156   5.843026   -4.539283 H        1 UNL1     0.0429
     90 H         -0.375196   4.839243   -5.011488 H        1 UNL1     0.0308
     91 H         -0.036007   3.755415   -6.993811 H        1 UNL1     0.0233
     92 H         -1.74996   3.998592   -7.416571 H        1 UNL1     0.0233
     93 H         -0.546496   5.173967   -7.901101 H        1 UNL1     0.0233
     94 H         -0.234277   7.068282   -4.975695 H        1 UNL1     0.0233
     95 H         -0.059759   6.880529   -6.727443 H        1 UNL1     0.0233
     96 H         -1.638395   7.317134   -6.033702 H        1 UNL1     0.0233
     97 H         -6.77225   -6.845682   -5.196101 H        1 UNL1     0.0280
     98 H         -5.610317   -6.678337   -6.484159 H        1 UNL1     0.0280
     99 H         -5.046315   -6.991839   -4.815822 H        1 UNL1     0.0280
     100 H         -6.666922   -4.06903   -7.863349 H        1 UNL1     0.2922
     101 H         -5.074648   1.056013   2.100816 H        1 UNL1     0.0236
     102 H         -4.413291   -0.603745   2.372607 H        1 UNL1     0.0236
     103 H         -5.928045   -0.355916   1.560451 H        1 UNL1     0.0236
     104 H         -3.294535   1.936919   1.355745 H        1 UNL1     0.2098
     105 H         0.675264   0.991748   1.253492 H        1 UNL1     0.0234
     106 H         1.112846   -0.727407   1.043434 H        1 UNL1     0.0234
     107 H         0.0   0.0   -0.0 H        1 UNL1     0.0234
     108 H         -1.312666   -3.731158   2.295872 H        1 UNL1     0.2098
     109 H         0.838179   -1.170035   -0.71403 H        1 UNL1     0.0234
     110 H         1.097368   -2.345802   -2.041884 H        1 UNL1     0.0234
     111 H         -0.414144   -2.291686   -1.204479 H        1 UNL1     0.0234
     112 H         3.707591   0.274571   3.653601 H        1 UNL1     0.0342
     113 H         4.557586   0.550574   2.091689 H        1 UNL1     0.0342
     114 H         2.794148   0.479722   2.148586 H        1 UNL1     0.0342
     115 H         0.399827   -3.956221   4.466522 H        1 UNL1     0.0234
     116 H         0.404785   -4.883778   2.963059 H        1 UNL1     0.0234
     117 H         1.897645   -4.349355   3.76269 H        1 UNL1     0.0234
     118 H         -1.354059   -5.60219   -3.075374 H        1 UNL1     0.0309
     119 H         -2.214404   -4.931016   -4.495724 H        1 UNL1     0.0309
     120 H         -1.352866   -3.902578   -3.372236 H        1 UNL1     0.0309
     121 H         -0.349008   -7.014629   0.86819 H        1 UNL1     0.0524
     122 H         -1.189437   -6.482808   2.330278 H        1 UNL1     0.0524
     123 H         -1.792183   -5.973816   0.732977 H        1 UNL1     0.0524
@<TRIPOS>BOND
     1     1     2    1
     2     1    42    1
     3     2     3    2
     4     3     4    1
     5     4     5    2
     6     5     7    1
     7     6    75    1
     8     6    76    1
     9     6    77    1
    10     7     9   am
    11     9    10    1
    12    10    11    2
    13    10    43    1
    14    11    14    1
    15    11    15    1
    16    12    13   ar
    17    12    27   ar
    18    12    43    1
    19    13    14    1
    20    13    30   ar
    21    14    17    2
    22    15    16    1
    23    16    17    1
    24    16    18    1
    25    16    22    1
    26    18    19    1
    27    19    20    1
    28    20    21    1
    29    21    22    1
    30    23    24    1
    31    23    88    1
    32    23    89    1
    33    24    25    1
    34    24    26    1
    35    24    90    1
    36    25    91    1
    37    25    92    1
    38    25    93    1
    39    26    94    1
    40    26    95    1
    41    26    96    1
    42    27    28   ar
    43    28    29   ar
    44    29    30   ar
    45    29    31    1
    46    30    33    1
    47    31    32    1
    48    32    33    1
    49    32    35    1
    50    34    97    1
    51    34    98    1
    52    34    99    1
    53    35    61    1
    54    36    37    1
    55    36    60    1
    56    37    38    1
    57    38    39    1
    58    39    40    1
    59    40    41    1
    60    41    42    1
    61    45   100    1
    62    47   101    1
    63    47   102    1
    64    47   103    1
    65    48   104    1
    66    49   105    1
    67    49   106    1
    68    49   107    1
    69    50   108    1
    70    51    59    1
    71    52   109    1
    72    52   110    1
    73    52   111    1
    74    53    54    1
    75    54    55    2
    76    54    56    1
    77    56   112    1
    78    56   113    1
    79    56   114    1
    80    57   115    1
    81    57   116    1
    82    57   117    1
    83    58   118    1
    84    58   119    1
    85    58   120    1
    86    59   121    1
    87    59   122    1
    88    59   123    1
    89    60    61    2
    90     1    47    1
    91     1    62    1
    92     2    63    1
    93     3    64    1
    94     4    65    1
    95     5     6    1
    96     7     8    2
    97     9    78    1
    98    15    79    1
    99    18    80    1
   100    18    81    1
   101    19    82    1
   102    19    83    1
   103    20    23    1
   104    21    84    1
   105    21    85    1
   106    22    86    1
   107    22    87    1
   108    27    45    1
   109    28    34    1
   110    32    58    1
   111    33    46    2
   112    36    51    1
   113    36    66    1
   114    37    52    1
   115    37    67    1
   116    38    53    1
   117    38    68    1
   118    42    48    1
   119    42    72    1
   120    43    44    2
   121    60    73    1
   122    61    74    1
   123    39    69    1
   124    39    57    1
   125    40    70    1
   126    40    50    1
   127    41    71    1
   128    41    49    1
