@<TRIPOS>MOLECULE
*****
 123 128 0 0 0
SMALL
GASTEIGER

@<TRIPOS>ATOM
     1 C         -0.458712   -4.451371   -2.183341 C.3        1 UNL1     0.0009
     2 C         0.706877   -5.748096   -2.813375 C.2        1 UNL1     -0.0787
     3 C         1.255347   -6.518129   -3.909859 C.2        1 UNL1     -0.0649
     4 C         2.544945   -7.614312   -3.868928 C.2        1 UNL1     -0.0542
     5 C         3.52118   -8.287952   -4.643688 C.2        1 UNL1     0.0115
     6 C         3.974493   -8.60389   -6.095588 C.3        1 UNL1     -0.0348
     7 C         4.792978   -8.929751   -3.903681 C.2        1 UNL1     0.2441
     8 O         4.894388   -10.126771   -3.672626 O.2        1 UNL1     -0.2702
     9 N         5.895477   -8.067454   -3.772943 N.am        1 UNL1     -0.2772
     10 C         5.796244   -7.333561   -2.613255 C.2        1 UNL1     0.1049
     11 C         5.040494   -6.25206   -2.671745 C.2        1 UNL1     0.0801
     12 C         5.362396   -7.550913   -0.159305 C.ar        1 UNL1     0.0753
     13 C         4.39504   -6.507941   -0.317546 C.ar        1 UNL1     0.0305
     14 C         4.29808   -5.735434   -1.554027 C.2        1 UNL1     0.0924
     15 N         4.511704   -5.624278   -3.736075 N.pl3        1 UNL1     -0.3170
     16 C         3.916488   -4.399068   -3.272574 C.3        1 UNL1     0.1275
     17 N         3.538946   -4.681144   -1.838831 N.2        1 UNL1     -0.2557
     18 C         5.023151   -3.350119   -3.220559 C.3        1 UNL1     0.0016
     19 C         5.667642   -3.254592   -4.594275 C.3        1 UNL1     0.0026
     20 N         4.645836   -2.890467   -5.566054 N.3        1 UNL1     -0.3018
     21 C         3.507672   -3.808462   -5.645024 C.3        1 UNL1     0.0026
     22 C         2.872574   -3.885742   -4.255573 C.3        1 UNL1     0.0016
     23 C         5.200387   -2.482988   -6.841624 C.3        1 UNL1     0.0012
     24 C         4.143417   -1.743473   -7.676901 C.3        1 UNL1     -0.0339
     25 C         3.275344   -0.825638   -6.800497 C.3        1 UNL1     -0.0615
     26 C         4.813741   -0.972679   -8.800878 C.3        1 UNL1     -0.0615
     27 C         5.530095   -8.200652   1.061282 C.ar        1 UNL1     0.1347
     28 C         4.81921   -7.868734   2.20081 C.ar        1 UNL1     0.0342
     29 C         3.838393   -6.872597   2.008784 C.ar        1 UNL1     0.1435
     30 C         3.634213   -6.2381   0.782837 C.ar        1 UNL1     0.0774
     31 O         3.13965   -6.362285   3.046255 O.3        1 UNL1     -0.4436
     32 C         2.629718   -5.111586   2.559846 C.3        1 UNL1     0.3143
     33 C         2.607918   -5.252483   1.051242 C.2        1 UNL1     0.2504
     34 C         5.11764   -8.3434   3.595705 C.3        1 UNL1     -0.0327
     35 O         1.266321   -5.011528   2.989252 O.2        1 UNL1     -0.4528
     36 C         0.580188   -1.3031   3.419215 C.3        1 UNL1     0.0854
     37 C         0.716202   -0.136145   2.366961 C.3        1 UNL1     0.0236
     38 C         -0.60952   0.741031   2.155378 C.3        1 UNL1     0.1131
     39 C         -1.988352   0.022366   1.864497 C.3        1 UNL1     0.0200
     40 C         -2.06786   -1.248745   0.787281 C.3        1 UNL1     0.0661
     41 C         -1.427653   -1.261515   -0.783573 C.3        1 UNL1     0.0091
     42 C         -0.727839   -2.639264   -1.772244 C.3        1 UNL1     0.0661
     43 C         6.243313   -7.856752   -1.313734 C.2        1 UNL1     0.2131
     44 O         7.322966   -8.409942   -1.208524 O.2        1 UNL1     -0.2851
     45 O         6.461228   -9.235614   1.118576 O.3        1 UNL1     -0.5056
     46 O         1.889849   -4.693638   0.25254 O.2        1 UNL1     -0.2836
     47 C         -1.910528   -5.000258   -2.15273 C.3        1 UNL1     -0.0566
     48 O         -1.500353   -2.306396   -2.993529 O.3        1 UNL1     -0.3909
     49 C         -0.487851   -0.086483   -0.937092 C.3        1 UNL1     -0.0577
     50 O         -1.784165   -2.472751   1.434622 O.3        1 UNL1     -0.3910
     51 O         -0.719759   -1.542001   3.909616 O.3        1 UNL1     -0.3753
     52 C         1.649817   -0.53187   1.176703 C.3        1 UNL1     -0.0564
     53 O         -0.36515   2.034423   1.434443 O.3        1 UNL1     -0.4608
     54 C         0.865224   2.573985   1.164291 C.2        1 UNL1     0.3042
     55 O         1.2212   3.14277   0.13298 O.2        1 UNL1     -0.2512
     56 C         1.828656   2.479628   2.313034 C.3        1 UNL1     0.0332
     57 C         -2.754442   -0.134111   3.259773 C.3        1 UNL1     -0.0567
     58 C         3.670895   -4.035082   2.945356 C.3        1 UNL1     0.0210
     59 C         -1.077938   -2.919331   4.012262 C.3        1 UNL1     0.0372
     60 C         1.119304   -2.617071   2.974247 C.2        1 UNL1     -0.0208
     61 C         0.603033   -3.842561   3.076146 C.2        1 UNL1     0.0882
     62 H         -0.047494   -4.597855   -1.177282 H        1 UNL1     0.0365
     63 H         1.141225   -6.103818   -1.876747 H        1 UNL1     0.0576
     64 H         0.968121   -6.323991   -4.945677 H        1 UNL1     0.0615
     65 H         2.697091   -7.797977   -2.801875 H        1 UNL1     0.0622
     66 H         1.21062   -0.988848   4.262925 H        1 UNL1     0.0645
     67 H         1.384781   0.591684   2.85872 H        1 UNL1     0.0362
     68 H         -0.710416   1.168295   3.164728 H        1 UNL1     0.0741
     69 H         -2.671606   0.741776   1.433195 H        1 UNL1     0.0359
     70 H         -3.159492   -1.277784   0.606846 H        1 UNL1     0.0600
     71 H         -2.309437   -0.910205   -1.354532 H        1 UNL1     0.0348
     72 H         -1.330703   -3.109075   -0.981581 H        1 UNL1     0.0602
     73 H         2.116299   -2.487981   2.632802 H        1 UNL1     0.0628
     74 H         -0.427702   -4.055711   3.361436 H        1 UNL1     0.1022
     75 H         3.710124   -7.762562   -6.78065 H        1 UNL1     0.0279
     76 H         5.044818   -8.710218   -6.257351 H        1 UNL1     0.0279
     77 H         3.411673   -9.434856   -6.545512 H        1 UNL1     0.0279
     78 H         5.910312   -7.410901   -4.550628 H        1 UNL1     0.1553
     79 H         4.841658   -5.747006   -4.675756 H        1 UNL1     0.1484
     80 H         4.591521   -2.389977   -2.913008 H        1 UNL1     0.0317
     81 H         5.774803   -3.61132   -2.467933 H        1 UNL1     0.0317
     82 H         6.165571   -4.193889   -4.876588 H        1 UNL1     0.0428
     83 H         6.454923   -2.502505   -4.534243 H        1 UNL1     0.0428
     84 H         2.718049   -3.470793   -6.323468 H        1 UNL1     0.0428
     85 H         3.800655   -4.789475   -6.043887 H        1 UNL1     0.0428
     86 H         1.97106   -4.456377   -4.380613 H        1 UNL1     0.0317
     87 H         2.506974   -2.896216   -3.955122 H        1 UNL1     0.0317
     88 H         6.035212   -1.796906   -6.647582 H        1 UNL1     0.0429
     89 H         5.609924   -3.340671   -7.390653 H        1 UNL1     0.0429
     90 H         3.492272   -2.478569   -8.164608 H        1 UNL1     0.0308
     91 H         2.47755   -0.35661   -7.38414 H        1 UNL1     0.0233
     92 H         2.832785   -1.386396   -5.973876 H        1 UNL1     0.0233
     93 H         3.854727   -0.014054   -6.343898 H        1 UNL1     0.0233
     94 H         4.065383   -0.417996   -9.377179 H        1 UNL1     0.0233
     95 H         5.523714   -0.250927   -8.387388 H        1 UNL1     0.0233
     96 H         5.347118   -1.642403   -9.48128 H        1 UNL1     0.0233
     97 H         6.029981   -8.930698   3.639801 H        1 UNL1     0.0280
     98 H         5.26314   -7.509226   4.294446 H        1 UNL1     0.0280
     99 H         4.285897   -8.969296   3.958408 H        1 UNL1     0.0280
     100 H         7.34035   -8.961083   1.311964 H        1 UNL1     0.2922
     101 H         -2.034631   -5.755148   -2.928871 H        1 UNL1     0.0236
     102 H         -2.666006   -4.218011   -2.218495 H        1 UNL1     0.0236
     103 H         -2.133904   -5.528169   -1.210601 H        1 UNL1     0.0236
     104 H         -0.861821   -2.034138   -3.681368 H        1 UNL1     0.2098
     105 H         0.276197   -0.219048   -1.698977 H        1 UNL1     0.0234
     106 H         -0.980752   0.877796   -1.060143 H        1 UNL1     0.0234
     107 H         0.0   0.0   0.0 H        1 UNL1     0.0234
     108 H         -0.822418   -2.495898   1.602775 H        1 UNL1     0.2098
     109 H         2.703079   -0.289609   1.375853 H        1 UNL1     0.0234
     110 H         1.563513   -1.586636   0.894278 H        1 UNL1     0.0234
     111 H         1.38817   0.011681   0.259075 H        1 UNL1     0.0234
     112 H         1.782271   1.480379   2.756537 H        1 UNL1     0.0342
     113 H         2.846281   2.728202   2.015551 H        1 UNL1     0.0342
     114 H         1.519937   3.203181   3.080059 H        1 UNL1     0.0342
     115 H         -3.422609   0.715649   3.456366 H        1 UNL1     0.0234
     116 H         -3.350248   -1.045558   3.339321 H        1 UNL1     0.0234
     117 H         -2.08581   -0.086721   4.136487 H        1 UNL1     0.0234
     118 H         3.218426   -3.031335   3.027635 H        1 UNL1     0.0309
     119 H         4.203182   -4.26519   3.873754 H        1 UNL1     0.0309
     120 H         4.442   -3.902439   2.178604 H        1 UNL1     0.0309
     121 H         -1.718975   -3.157396   3.163879 H        1 UNL1     0.0524
     122 H         -0.200046   -3.584778   3.962038 H        1 UNL1     0.0524
     123 H         -1.605948   -3.101947   4.943901 H        1 UNL1     0.0524
@<TRIPOS>BOND
     1     1     2    1
     2     1    42    1
     3     2     3    2
     4     3     4    1
     5     4     5    2
     6     5     7    1
     7     6    75    1
     8     6    76    1
     9     6    77    1
    10     7     9   am
    11     9    10    1
    12    10    11    2
    13    10    43    1
    14    11    14    1
    15    11    15    1
    16    12    13   ar
    17    12    27   ar
    18    12    43    1
    19    13    14    1
    20    13    30   ar
    21    14    17    2
    22    15    16    1
    23    16    17    1
    24    16    18    1
    25    16    22    1
    26    18    19    1
    27    19    20    1
    28    20    21    1
    29    21    22    1
    30    23    24    1
    31    23    88    1
    32    23    89    1
    33    24    25    1
    34    24    26    1
    35    24    90    1
    36    25    91    1
    37    25    92    1
    38    25    93    1
    39    26    94    1
    40    26    95    1
    41    26    96    1
    42    27    28   ar
    43    28    29   ar
    44    29    30   ar
    45    29    31    1
    46    30    33    1
    47    31    32    1
    48    32    33    1
    49    32    35    1
    50    34    97    1
    51    34    98    1
    52    34    99    1
    53    35    61    1
    54    36    37    1
    55    36    60    1
    56    37    38    1
    57    38    39    1
    58    39    40    1
    59    40    41    1
    60    41    42    1
    61    45   100    1
    62    47   101    1
    63    47   102    1
    64    47   103    1
    65    48   104    1
    66    49   105    1
    67    49   106    1
    68    49   107    1
    69    50   108    1
    70    51    59    1
    71    52   109    1
    72    52   110    1
    73    52   111    1
    74    53    54    1
    75    54    55    2
    76    54    56    1
    77    56   112    1
    78    56   113    1
    79    56   114    1
    80    57   115    1
    81    57   116    1
    82    57   117    1
    83    58   118    1
    84    58   119    1
    85    58   120    1
    86    59   121    1
    87    59   122    1
    88    59   123    1
    89    60    61    2
    90     1    47    1
    91     1    62    1
    92     2    63    1
    93     3    64    1
    94     4    65    1
    95     5     6    1
    96     7     8    2
    97     9    78    1
    98    15    79    1
    99    18    80    1
   100    18    81    1
   101    19    82    1
   102    19    83    1
   103    20    23    1
   104    21    84    1
   105    21    85    1
   106    22    86    1
   107    22    87    1
   108    27    45    1
   109    28    34    1
   110    32    58    1
   111    33    46    2
   112    36    51    1
   113    36    66    1
   114    37    52    1
   115    37    67    1
   116    38    53    1
   117    38    68    1
   118    42    48    1
   119    42    72    1
   120    43    44    2
   121    60    73    1
   122    61    74    1
   123    39    69    1
   124    39    57    1
   125    40    70    1
   126    40    50    1
   127    41    71    1
   128    41    49    1
