@<TRIPOS>MOLECULE
*****
 123 128 0 0 0
SMALL
GASTEIGER

@<TRIPOS>ATOM
     1 C         5.167256   1.747888   0.493583 C.3        1 UNL1     0.0009
     2 C         6.604313   2.554146   -0.356035 C.2        1 UNL1     -0.0787
     3 C         7.886382   2.456054   -1.02141 C.2        1 UNL1     -0.0649
     4 C         8.76423   3.691364   -1.776228 C.2        1 UNL1     -0.0542
     5 C         9.784583   3.98425   -2.714404 C.2        1 UNL1     0.0115
     6 C         10.91296   3.359003   -3.57994 C.3        1 UNL1     -0.0348
     7 C         9.880309   5.467739   -3.320281 C.2        1 UNL1     0.2441
     8 O         10.704189   6.289122   -2.942023 O.2        1 UNL1     -0.2702
     9 N         9.130474   5.675282   -4.491103 N.am        1 UNL1     -0.2772
     10 C         7.847715   6.062011   -4.177584 C.2        1 UNL1     0.1049
     11 C         7.001708   5.090595   -3.886302 C.2        1 UNL1     0.0801
     12 C         6.54911   7.668269   -2.766594 C.ar        1 UNL1     0.0753
     13 C         5.789762   6.540276   -2.319793 C.ar        1 UNL1     0.0305
     14 C         5.906713   5.23482   -2.965671 C.2        1 UNL1     0.0924
     15 N         7.124196   3.761665   -4.04589 N.pl3        1 UNL1     -0.3170
     16 C         5.854159   3.162541   -3.732345 C.3        1 UNL1     0.1275
     17 N         5.217589   4.117467   -2.752233 N.2        1 UNL1     -0.2557
     18 C         5.001705   3.222238   -4.996252 C.3        1 UNL1     0.0016
     19 C         5.756838   2.538499   -6.124908 C.3        1 UNL1     0.0026
     20 N         6.026674   1.160205   -5.739523 N.3        1 UNL1     -0.3018
     21 C         6.78963   0.999206   -4.500029 C.3        1 UNL1     0.0026
     22 C         6.010636   1.68938   -3.378992 C.3        1 UNL1     0.0016
     23 C         6.471408   0.341054   -6.849409 C.3        1 UNL1     0.0012
     24 C         5.316229   0.092133   -7.831935 C.3        1 UNL1     -0.0339
     25 C         5.342277   1.095777   -8.996441 C.3        1 UNL1     -0.0615
     26 C         5.35558   -1.342379   -8.329336 C.3        1 UNL1     -0.0615
     27 C         6.344458   8.935773   -2.22653 C.ar        1 UNL1     0.1347
     28 C         5.385144   9.205066   -1.266714 C.ar        1 UNL1     0.0342
     29 C         4.683287   8.070526   -0.806951 C.ar        1 UNL1     0.1435
     30 C         4.902709   6.788672   -1.312841 C.ar        1 UNL1     0.0774
     31 O         3.642052   8.183892   0.046268 O.3        1 UNL1     -0.4436
     32 C         2.920249   6.951228   -0.096605 C.3        1 UNL1     0.3143
     33 C         3.933572   5.958198   -0.628846 C.2        1 UNL1     0.2504
     34 C         4.938359   10.571054   -0.825626 C.3        1 UNL1     -0.0327
     35 O         2.559156   6.514052   1.219351 O.2        1 UNL1     -0.4528
     36 C         -0.684034   4.582467   0.820873 C.3        1 UNL1     0.0854
     37 C         -0.989243   3.322282   -0.077071 C.3        1 UNL1     0.0236
     38 C         -1.590207   2.061007   0.710186 C.3        1 UNL1     0.1131
     39 C         -0.86491   1.529457   2.011597 C.3        1 UNL1     0.0200
     40 C         0.79625   1.383669   2.053202 C.3        1 UNL1     0.0661
     41 C         1.755862   0.61517   0.884372 C.3        1 UNL1     0.0091
     42 C         3.463667   0.977716   0.32102 C.3        1 UNL1     0.0661
     43 C         7.499458   7.460879   -3.887348 C.2        1 UNL1     0.2131
     44 O         7.899678   8.359186   -4.605405 O.2        1 UNL1     -0.2851
     45 O         7.157004   9.97095   -2.684371 O.3        1 UNL1     -0.5056
     46 O         3.949357   4.75461   -0.498537 O.2        1 UNL1     -0.2836
     47 C         5.563133   1.317793   1.931735 C.3        1 UNL1     -0.0566
     48 O         3.912012   -0.433483   0.402385 O.3        1 UNL1     -0.3909
     49 C         0.92201   0.38318   -0.355936 C.3        1 UNL1     -0.0577
     50 O         1.3965   2.601294   2.446662 O.3        1 UNL1     -0.3910
     51 O         -0.80856   4.392266   2.212185 O.3        1 UNL1     -0.3753
     52 C         0.05553   3.162116   -1.229349 C.3        1 UNL1     -0.0564
     53 O         -2.192688   1.022458   -0.190235 O.3        1 UNL1     -0.4608
     54 C         -2.414885   -0.287735   0.144359 C.2        1 UNL1     0.3042
     55 O         -1.842482   -1.280414   -0.303729 O.2        1 UNL1     -0.2512
     56 C         -3.444466   -0.466539   1.223574 C.3        1 UNL1     0.0332
     57 C         -1.586217   2.198061   3.27289 C.3        1 UNL1     -0.0567
     58 C         1.845407   7.196889   -1.180991 C.3        1 UNL1     0.0210
     59 C         -1.152732   5.564667   2.948994 C.3        1 UNL1     0.0372
     60 C         0.645117   5.211456   0.590891 C.2        1 UNL1     -0.0208
     61 C         1.557858   5.646225   1.460732 C.2        1 UNL1     0.0882
     62 H         4.691447   2.732094   0.581092 H        1 UNL1     0.0365
     63 H         6.338183   3.607942   -0.250401 H        1 UNL1     0.0576
     64 H         8.343966   1.489226   -1.242697 H        1 UNL1     0.0615
     65 H         8.277174   4.606695   -1.429198 H        1 UNL1     0.0622
     66 H         -1.42849   5.329219   0.510721 H        1 UNL1     0.0645
     67 H         -1.85457   3.632004   -0.688496 H        1 UNL1     0.0362
     68 H         -2.537318   2.497881   1.061816 H        1 UNL1     0.0741
     69 H         -1.196632   0.518331   2.206513 H        1 UNL1     0.0359
     70 H         0.907677   0.722984   2.93419 H        1 UNL1     0.0600
     71 H         1.799177   -0.406165   1.310934 H        1 UNL1     0.0348
     72 H         3.35757   1.46556   1.30085 H        1 UNL1     0.0602
     73 H         0.76334   5.409085   -0.445552 H        1 UNL1     0.0628
     74 H         1.539973   5.435154   2.530483 H        1 UNL1     0.1022
     75 H         10.957242   2.253659   -3.427333 H        1 UNL1     0.0279
     76 H         10.799651   3.44222   -4.658506 H        1 UNL1     0.0279
     77 H         11.917984   3.663441   -3.252914 H        1 UNL1     0.0279
     78 H         9.068502   4.805542   -5.01626 H        1 UNL1     0.1553
     79 H         7.789583   3.333816   -4.663254 H        1 UNL1     0.1484
     80 H         4.040299   2.731366   -4.802581 H        1 UNL1     0.0317
     81 H         4.775321   4.259127   -5.266925 H        1 UNL1     0.0317
     82 H         6.687647   3.069764   -6.372424 H        1 UNL1     0.0428
     83 H         5.13195   2.59407   -7.016803 H        1 UNL1     0.0428
     84 H         6.909714   -0.04388   -4.191222 H        1 UNL1     0.0428
     85 H         7.819804   1.367133   -4.603411 H        1 UNL1     0.0428
     86 H         6.526763   1.438599   -2.470857 H        1 UNL1     0.0317
     87 H         5.031088   1.211834   -3.254365 H        1 UNL1     0.0317
     88 H         7.267699   0.882938   -7.376265 H        1 UNL1     0.0429
     89 H         6.903769   -0.604912   -6.498717 H        1 UNL1     0.0429
     90 H         4.36323   0.198774   -7.300302 H        1 UNL1     0.0308
     91 H         6.291345   1.050942   -9.538992 H        1 UNL1     0.0233
     92 H         4.52217   0.902055   -9.691787 H        1 UNL1     0.0233
     93 H         5.217973   2.13154   -8.657945 H        1 UNL1     0.0233
     94 H         4.659522   -1.471543   -9.165192 H        1 UNL1     0.0233
     95 H         6.36002   -1.586661   -8.686253 H        1 UNL1     0.0233
     96 H         5.080883   -2.046477   -7.538921 H        1 UNL1     0.0233
     97 H         4.144801   10.521108   -0.086031 H        1 UNL1     0.0280
     98 H         5.751056   11.140807   -0.356412 H        1 UNL1     0.0280
     99 H         4.565008   11.135967   -1.695441 H        1 UNL1     0.0280
     100 H         6.690166   10.721485   -3.007451 H        1 UNL1     0.2922
     101 H         4.700114   0.884084   2.436465 H        1 UNL1     0.0236
     102 H         6.01386   2.122857   2.51113 H        1 UNL1     0.0236
     103 H         6.31927   0.515018   1.93055 H        1 UNL1     0.0236
     104 H         4.331278   -0.559858   1.276007 H        1 UNL1     0.2098
     105 H         0.709651   1.282256   -0.92898 H        1 UNL1     0.0234
     106 H         1.291476   -0.404648   -1.012251 H        1 UNL1     0.0234
     107 H         0.0   -0.0   0.0 H        1 UNL1     0.0234
     108 H         1.198239   3.259833   1.753273 H        1 UNL1     0.2098
     109 H         1.080241   3.048357   -0.848904 H        1 UNL1     0.0234
     110 H         -0.176833   2.335302   -1.90915 H        1 UNL1     0.0234
     111 H         0.07703   4.045171   -1.881805 H        1 UNL1     0.0234
     112 H         -3.567451   -1.530422   1.448013 H        1 UNL1     0.0342
     113 H         -3.197568   0.096401   2.122453 H        1 UNL1     0.0342
     114 H         -4.405046   -0.088473   0.84739 H        1 UNL1     0.0342
     115 H         -2.655886   1.949918   3.310598 H        1 UNL1     0.0234
     116 H         -1.150071   1.917882   4.233789 H        1 UNL1     0.0234
     117 H         -1.62465   3.29994   3.224661 H        1 UNL1     0.0234
     118 H         0.944283   7.683766   -0.768762 H        1 UNL1     0.0309
     119 H         2.215098   7.785137   -2.026861 H        1 UNL1     0.0309
     120 H         1.456829   6.265142   -1.606385 H        1 UNL1     0.0309
     121 H         -0.348363   6.287163   2.813549 H        1 UNL1     0.0524
     122 H         -2.082725   6.03078   2.583084 H        1 UNL1     0.0524
     123 H         -1.26875   5.325996   4.002403 H        1 UNL1     0.0524
@<TRIPOS>BOND
     1     1     2    1
     2     1    42    1
     3     2     3    2
     4     3     4    1
     5     4     5    2
     6     5     7    1
     7     6    75    1
     8     6    76    1
     9     6    77    1
    10     7     9   am
    11     9    10    1
    12    10    11    2
    13    10    43    1
    14    11    14    1
    15    11    15    1
    16    12    13   ar
    17    12    27   ar
    18    12    43    1
    19    13    14    1
    20    13    30   ar
    21    14    17    2
    22    15    16    1
    23    16    17    1
    24    16    18    1
    25    16    22    1
    26    18    19    1
    27    19    20    1
    28    20    21    1
    29    21    22    1
    30    23    24    1
    31    23    88    1
    32    23    89    1
    33    24    25    1
    34    24    26    1
    35    24    90    1
    36    25    91    1
    37    25    92    1
    38    25    93    1
    39    26    94    1
    40    26    95    1
    41    26    96    1
    42    27    28   ar
    43    28    29   ar
    44    29    30   ar
    45    29    31    1
    46    30    33    1
    47    31    32    1
    48    32    33    1
    49    32    35    1
    50    34    97    1
    51    34    98    1
    52    34    99    1
    53    35    61    1
    54    36    37    1
    55    36    60    1
    56    37    38    1
    57    38    39    1
    58    39    40    1
    59    40    41    1
    60    41    42    1
    61    45   100    1
    62    47   101    1
    63    47   102    1
    64    47   103    1
    65    48   104    1
    66    49   105    1
    67    49   106    1
    68    49   107    1
    69    50   108    1
    70    51    59    1
    71    52   109    1
    72    52   110    1
    73    52   111    1
    74    53    54    1
    75    54    55    2
    76    54    56    1
    77    56   112    1
    78    56   113    1
    79    56   114    1
    80    57   115    1
    81    57   116    1
    82    57   117    1
    83    58   118    1
    84    58   119    1
    85    58   120    1
    86    59   121    1
    87    59   122    1
    88    59   123    1
    89    60    61    2
    90     1    47    1
    91     1    62    1
    92     2    63    1
    93     3    64    1
    94     4    65    1
    95     5     6    1
    96     7     8    2
    97     9    78    1
    98    15    79    1
    99    18    80    1
   100    18    81    1
   101    19    82    1
   102    19    83    1
   103    20    23    1
   104    21    84    1
   105    21    85    1
   106    22    86    1
   107    22    87    1
   108    27    45    1
   109    28    34    1
   110    32    58    1
   111    33    46    2
   112    36    51    1
   113    36    66    1
   114    37    52    1
   115    37    67    1
   116    38    53    1
   117    38    68    1
   118    42    48    1
   119    42    72    1
   120    43    44    2
   121    60    73    1
   122    61    74    1
   123    39    69    1
   124    39    57    1
   125    40    70    1
   126    40    50    1
   127    41    71    1
   128    41    49    1
