@<TRIPOS>MOLECULE
*****
 123 128 0 0 0
SMALL
GASTEIGER

@<TRIPOS>ATOM
     1 C         5.115418   1.896526   0.49743 C.3        1 UNL1     0.0009
     2 C         6.511246   2.783035   -0.340903 C.2        1 UNL1     -0.0787
     3 C         7.790413   2.755031   -1.018395 C.2        1 UNL1     -0.0649
     4 C         8.610969   4.044795   -1.746099 C.2        1 UNL1     -0.0542
     5 C         9.610455   4.403959   -2.683706 C.2        1 UNL1     0.0115
     6 C         10.755658   3.848529   -3.574398 C.3        1 UNL1     -0.0348
     7 C         9.640811   5.905799   -3.249872 C.2        1 UNL1     0.2441
     8 O         10.434028   6.749602   -2.855755 O.2        1 UNL1     -0.2702
     9 N         8.87306   6.113926   -4.40892 N.am        1 UNL1     -0.2772
     10 C         7.578472   6.439615   -4.075319 C.2        1 UNL1     0.1049
     11 C         6.775027   5.427135   -3.804058 C.2        1 UNL1     0.0801
     12 C         6.228223   7.953365   -2.611515 C.ar        1 UNL1     0.0753
     13 C         5.519048   6.783857   -2.189697 C.ar        1 UNL1     0.0305
     14 C         5.683122   5.501996   -2.871579 C.2        1 UNL1     0.0924
     15 N         6.949802   4.109036   -4.000521 N.pl3        1 UNL1     -0.3170
     16 C         5.707818   3.450559   -3.693702 C.3        1 UNL1     0.1275
     17 N         5.041656   4.352218   -2.683275 N.2        1 UNL1     -0.2557
     18 C         4.842712   3.509333   -4.949026 C.3        1 UNL1     0.0016
     19 C         5.615073   2.887337   -6.101489 C.3        1 UNL1     0.0026
     20 N         5.943797   1.511342   -5.755649 N.3        1 UNL1     -0.3018
     21 C         6.72337   1.348399   -4.526794 C.3        1 UNL1     0.0026
     22 C         5.926841   1.976054   -3.381593 C.3        1 UNL1     0.0016
     23 C         6.411668   0.740965   -6.890665 C.3        1 UNL1     0.0012
     24 C         5.259026   0.471638   -7.870786 C.3        1 UNL1     -0.0339
     25 C         5.244846   1.495964   -9.017351 C.3        1 UNL1     -0.0615
     26 C         5.342098   -0.951822   -8.393893 C.3        1 UNL1     -0.0615
     27 C         5.977141   9.196584   -2.035769 C.ar        1 UNL1     0.1347
     28 C         5.016079   9.400836   -1.06176 C.ar        1 UNL1     0.0342
     29 C         4.364724   8.226781   -0.627599 C.ar        1 UNL1     0.1435
     30 C         4.631441   6.968916   -1.169687 C.ar        1 UNL1     0.0774
     31 O         3.327197   8.274812   0.236251 O.3        1 UNL1     -0.4436
     32 C         2.654655   7.018068   0.065507 C.3        1 UNL1     0.3143
     33 C         3.702675   6.081689   -0.501115 C.2        1 UNL1     0.2504
     34 C         4.518227   10.735219   -0.580446 C.3        1 UNL1     -0.0327
     35 O         2.322981   6.531495   1.371835 O.2        1 UNL1     -0.4528
     36 C         -0.842724   4.480917   0.945771 C.3        1 UNL1     0.0854
     37 C         -1.104468   3.233844   0.016351 C.3        1 UNL1     0.0236
     38 C         -1.647046   1.928543   0.773678 C.3        1 UNL1     0.1131
     39 C         -0.889568   1.3923   2.05467 C.3        1 UNL1     0.0200
     40 C         0.776429   1.313156   2.079711 C.3        1 UNL1     0.0661
     41 C         1.756176   0.615896   0.883243 C.3        1 UNL1     0.0091
     42 C         3.442958   1.062574   0.316986 C.3        1 UNL1     0.0661
     43 C         7.176424   7.814886   -3.744652 C.2        1 UNL1     0.2131
     44 O         7.533719   8.747629   -4.44112 O.2        1 UNL1     -0.2851
     45 O         6.743127   10.275846   -2.471541 O.3        1 UNL1     -0.5056
     46 O         3.768283   4.876683   -0.40359 O.2        1 UNL1     -0.2836
     47 C         5.54084   1.444553   1.920356 C.3        1 UNL1     -0.0566
     48 O         3.948731   -0.330887   0.356681 O.3        1 UNL1     -0.3909
     49 C         0.921663   0.383455   -0.356537 C.3        1 UNL1     -0.0577
     50 O         1.330306   2.543227   2.501456 O.3        1 UNL1     -0.3910
     51 O         -0.947374   4.248635   2.332323 O.3        1 UNL1     -0.3753
     52 C         -0.064107   3.147218   -1.147734 C.3        1 UNL1     -0.0564
     53 O         -2.214797   0.890815   -0.149959 O.3        1 UNL1     -0.4608
     54 C         -2.393461   -0.433111   0.155376 C.2        1 UNL1     0.3042
     55 O         -1.788233   -1.396085   -0.313899 O.2        1 UNL1     -0.2512
     56 C         -3.41692   -0.669823   1.229254 C.3        1 UNL1     0.0332
     57 C         -1.626369   1.997003   3.339051 C.3        1 UNL1     -0.0567
     58 C         1.561383   7.248731   -1.003642 C.3        1 UNL1     0.0210
     59 C         -1.301632   5.393434   3.106791 C.3        1 UNL1     0.0372
     60 C         0.457839   5.169392   0.722843 C.2        1 UNL1     -0.0208
     61 C         1.359753   5.617499   1.597199 C.2        1 UNL1     0.0882
     62 H         4.60095   2.857863   0.615181 H        1 UNL1     0.0365
     63 H         6.203616   3.821926   -0.204739 H        1 UNL1     0.0576
     64 H         8.284808   1.81389   -1.269262 H        1 UNL1     0.0615
     65 H         8.090302   4.929935   -1.370712 H        1 UNL1     0.0622
     66 H         -1.619451   5.204796   0.661622 H        1 UNL1     0.0645
     67 H         -1.986892   3.524358   -0.579878 H        1 UNL1     0.0362
     68 H         -2.607973   2.316953   1.144189 H        1 UNL1     0.0741
     69 H         -1.178397   0.36366   2.224627 H        1 UNL1     0.0359
     70 H         0.922141   0.634208   2.941603 H        1 UNL1     0.0600
     71 H         1.844485   -0.413882   1.281633 H        1 UNL1     0.0348
     72 H         3.325713   1.519297   1.310451 H        1 UNL1     0.0602
     73 H         0.55897   5.399339   -0.308731 H        1 UNL1     0.0628
     74 H         1.359707   5.377317   2.660943 H        1 UNL1     0.1022
     75 H         10.827313   2.738665   -3.473894 H        1 UNL1     0.0279
     76 H         10.642214   3.979671   -4.648177 H        1 UNL1     0.0279
     77 H         11.752168   4.162146   -3.230431 H        1 UNL1     0.0279
     78 H         8.84178   5.256754   -4.956966 H        1 UNL1     0.1553
     79 H         7.626576   3.725291   -4.634279 H        1 UNL1     0.1484
     80 H         3.903674   2.974744   -4.761442 H        1 UNL1     0.0317
     81 H         4.572214   4.543025   -5.18978 H        1 UNL1     0.0317
     82 H         6.521439   3.462467   -6.341571 H        1 UNL1     0.0428
     83 H         4.980733   2.941291   -6.986786 H        1 UNL1     0.0428
     84 H         6.88824   0.30317   -4.247284 H        1 UNL1     0.0428
     85 H         7.736875   1.76057   -4.627979 H        1 UNL1     0.0428
     86 H         6.460554   1.722262   -2.484526 H        1 UNL1     0.0317
     87 H         4.968538   1.455886   -3.262526 H        1 UNL1     0.0317
     88 H         7.180777   1.328706   -7.408668 H        1 UNL1     0.0429
     89 H         6.884981   -0.195675   -6.569023 H        1 UNL1     0.0429
     90 H         4.306447   0.537574   -7.331844 H        1 UNL1     0.0308
     91 H         6.194759   1.498408   -9.560271 H        1 UNL1     0.0233
     92 H         4.432828   1.282195   -9.716307 H        1 UNL1     0.0233
     93 H         5.079675   2.519832   -8.660634 H        1 UNL1     0.0233
     94 H         4.646466   -1.088561   -9.228899 H        1 UNL1     0.0233
     95 H         6.352118   -1.157198   -8.759465 H        1 UNL1     0.0233
     96 H         5.094092   -1.678307   -7.614996 H        1 UNL1     0.0233
     97 H         3.727437   10.633313   0.156776 H        1 UNL1     0.0280
     98 H         5.309034   11.320998   -0.093883 H        1 UNL1     0.0280
     99 H         4.123442   11.311327   -1.433289 H        1 UNL1     0.0280
     100 H         6.243515   11.015881   -2.76879 H        1 UNL1     0.2922
     101 H         4.696927   0.973896   2.42429 H        1 UNL1     0.0236
     102 H         5.974818   2.248676   2.513679 H        1 UNL1     0.0236
     103 H         6.319979   0.664617   1.891494 H        1 UNL1     0.0236
     104 H         4.380022   -0.463546   1.223491 H        1 UNL1     0.2098
     105 H         0.70865   1.282381   -0.929571 H        1 UNL1     0.0234
     106 H         1.291012   -0.40433   -1.01297 H        1 UNL1     0.0234
     107 H         0.0   -0.0   0.0 H        1 UNL1     0.0234
     108 H         1.104982   3.21012   1.824513 H        1 UNL1     0.2098
     109 H         0.968575   3.077548   -0.778375 H        1 UNL1     0.0234
     110 H         -0.261686   2.322601   -1.841068 H        1 UNL1     0.0234
     111 H         -0.092651   4.042181   -1.78348 H        1 UNL1     0.0234
     112 H         -3.495427   -1.740903   1.438944 H        1 UNL1     0.0342
     113 H         -3.19592   -0.109285   2.136337 H        1 UNL1     0.0342
     114 H         -4.39177   -0.327467   0.855591 H        1 UNL1     0.0342
     115 H         -2.684752   1.704625   3.378131 H        1 UNL1     0.0234
     116 H         -1.170921   1.709182   4.288669 H        1 UNL1     0.0234
     117 H         -1.709776   3.097302   3.320989 H        1 UNL1     0.0234
     118 H         0.644342   7.685892   -0.571285 H        1 UNL1     0.0309
     119 H         1.899139   7.875223   -1.835286 H        1 UNL1     0.0309
     120 H         1.208245   6.313777   -1.452262 H        1 UNL1     0.0309
     121 H         -0.510788   6.132771   2.983078 H        1 UNL1     0.0524
     122 H         -2.24341   5.854426   2.765355 H        1 UNL1     0.0524
     123 H         -1.401059   5.122596   4.1541 H        1 UNL1     0.0524
@<TRIPOS>BOND
     1     1     2    1
     2     1    42    1
     3     2     3    2
     4     3     4    1
     5     4     5    2
     6     5     7    1
     7     6    75    1
     8     6    76    1
     9     6    77    1
    10     7     9   am
    11     9    10    1
    12    10    11    2
    13    10    43    1
    14    11    14    1
    15    11    15    1
    16    12    13   ar
    17    12    27   ar
    18    12    43    1
    19    13    14    1
    20    13    30   ar
    21    14    17    2
    22    15    16    1
    23    16    17    1
    24    16    18    1
    25    16    22    1
    26    18    19    1
    27    19    20    1
    28    20    21    1
    29    21    22    1
    30    23    24    1
    31    23    88    1
    32    23    89    1
    33    24    25    1
    34    24    26    1
    35    24    90    1
    36    25    91    1
    37    25    92    1
    38    25    93    1
    39    26    94    1
    40    26    95    1
    41    26    96    1
    42    27    28   ar
    43    28    29   ar
    44    29    30   ar
    45    29    31    1
    46    30    33    1
    47    31    32    1
    48    32    33    1
    49    32    35    1
    50    34    97    1
    51    34    98    1
    52    34    99    1
    53    35    61    1
    54    36    37    1
    55    36    60    1
    56    37    38    1
    57    38    39    1
    58    39    40    1
    59    40    41    1
    60    41    42    1
    61    45   100    1
    62    47   101    1
    63    47   102    1
    64    47   103    1
    65    48   104    1
    66    49   105    1
    67    49   106    1
    68    49   107    1
    69    50   108    1
    70    51    59    1
    71    52   109    1
    72    52   110    1
    73    52   111    1
    74    53    54    1
    75    54    55    2
    76    54    56    1
    77    56   112    1
    78    56   113    1
    79    56   114    1
    80    57   115    1
    81    57   116    1
    82    57   117    1
    83    58   118    1
    84    58   119    1
    85    58   120    1
    86    59   121    1
    87    59   122    1
    88    59   123    1
    89    60    61    2
    90     1    47    1
    91     1    62    1
    92     2    63    1
    93     3    64    1
    94     4    65    1
    95     5     6    1
    96     7     8    2
    97     9    78    1
    98    15    79    1
    99    18    80    1
   100    18    81    1
   101    19    82    1
   102    19    83    1
   103    20    23    1
   104    21    84    1
   105    21    85    1
   106    22    86    1
   107    22    87    1
   108    27    45    1
   109    28    34    1
   110    32    58    1
   111    33    46    2
   112    36    51    1
   113    36    66    1
   114    37    52    1
   115    37    67    1
   116    38    53    1
   117    38    68    1
   118    42    48    1
   119    42    72    1
   120    43    44    2
   121    60    73    1
   122    61    74    1
   123    39    69    1
   124    39    57    1
   125    40    70    1
   126    40    50    1
   127    41    71    1
   128    41    49    1
