@<TRIPOS>MOLECULE
*****
 123 128 0 0 0
SMALL
GASTEIGER

@<TRIPOS>ATOM
     1 C         5.173067   1.730907   0.489844 C.3        1 UNL1     0.0009
     2 C         6.614166   2.527573   -0.361976 C.2        1 UNL1     -0.0787
     3 C         7.895949   2.421242   -1.026635 C.2        1 UNL1     -0.0649
     4 C         8.779843   3.649908   -1.785231 C.2        1 UNL1     -0.0542
     5 C         9.801841   3.93489   -2.724052 C.2        1 UNL1     0.0115
     6 C         10.9275   3.301481   -3.587189 C.3        1 UNL1     -0.0348
     7 C         9.904753   5.415915   -3.334759 C.2        1 UNL1     0.2441
     8 O         10.732397   6.23463   -2.958945 O.2        1 UNL1     -0.2702
     9 N         9.156246   5.623158   -4.506484 N.am        1 UNL1     -0.2772
     10 C         7.875239   6.016971   -4.194625 C.2        1 UNL1     0.1049
     11 C         7.024565   5.050525   -3.900417 C.2        1 UNL1     0.0801
     12 C         6.583834   7.633967   -2.789303 C.ar        1 UNL1     0.0753
     13 C         5.819033   6.511047   -2.339038 C.ar        1 UNL1     0.0305
     14 C         5.929999   5.202942   -2.980597 C.2        1 UNL1     0.0924
     15 N         7.140816   3.720514   -4.055611 N.pl3        1 UNL1     -0.3170
     16 C         5.867871   3.128431   -3.74049 C.3        1 UNL1     0.1275
     17 N         5.235539   4.089563   -2.763707 N.2        1 UNL1     -0.2557
     18 C         5.016074   3.18801   -5.004845 C.3        1 UNL1     0.0016
     19 C         5.768293   2.497012   -6.131024 C.3        1 UNL1     0.0026
     20 N         6.031499   1.118729   -5.741041 N.3        1 UNL1     -0.3018
     21 C         6.793328   0.958193   -4.500793 C.3        1 UNL1     0.0026
     22 C         6.017281   1.655713   -3.382262 C.3        1 UNL1     0.0016
     23 C         6.472677   0.293851   -6.8481 C.3        1 UNL1     0.0012
     24 C         5.316619   0.04717   -7.830156 C.3        1 UNL1     -0.0339
     25 C         5.357852   1.03575   -9.007044 C.3        1 UNL1     -0.0615
     26 C         5.339007   -1.393837   -8.309505 C.3        1 UNL1     -0.0615
     27 C         6.385019   8.904188   -2.25346 C.ar        1 UNL1     0.1347
     28 C         5.426711   9.181158   -1.294823 C.ar        1 UNL1     0.0342
     29 C         4.719367   8.051462   -0.831558 C.ar        1 UNL1     0.1435
     30 C         4.932873   6.766933   -1.333177 C.ar        1 UNL1     0.0774
     31 O         3.678432   8.172545   0.020968 O.3        1 UNL1     -0.4436
     32 C         2.950852   6.942844   -0.118083 C.3        1 UNL1     0.3143
     33 C         3.959623   5.943296   -0.646757 C.2        1 UNL1     0.2504
     34 C         4.98626   10.550682   -0.858352 C.3        1 UNL1     -0.0327
     35 O         2.587317   6.511697   1.199189 O.2        1 UNL1     -0.4528
     36 C         -0.664853   4.594165   0.806058 C.3        1 UNL1     0.0854
     37 C         -0.975756   3.332498   -0.087843 C.3        1 UNL1     0.0236
     38 C         -1.582902   2.076666   0.703361 C.3        1 UNL1     0.1131
     39 C         -0.860503   1.545966   2.006728 C.3        1 UNL1     0.0200
     40 C         0.799938   1.392465   2.049317 C.3        1 UNL1     0.0661
     41 C         1.756244   0.615611   0.883305 C.3        1 UNL1     0.0091
     42 C         3.465907   0.968232   0.319287 C.3        1 UNL1     0.0661
     43 C         7.533514   7.418414   -3.909082 C.2        1 UNL1     0.2131
     44 O         7.938183   8.312459   -4.629958 O.2        1 UNL1     -0.2851
     45 O         7.202581   9.934006   -2.714444 O.3        1 UNL1     -0.5056
     46 O         3.969681   4.74008   -0.512498 O.2        1 UNL1     -0.2836
     47 C         5.566491   1.303664   1.929518 C.3        1 UNL1     -0.0566
     48 O         3.907553   -0.444795   0.405415 O.3        1 UNL1     -0.3909
     49 C         0.921663   0.383498   -0.35649 C.3        1 UNL1     -0.0577
     50 O         1.405823   2.608525   2.438966 O.3        1 UNL1     -0.3910
     51 O         -0.790678   4.409119   2.197948 O.3        1 UNL1     -0.3753
     52 C         0.068581   3.163619   -1.239272 C.3        1 UNL1     -0.0564
     53 O         -2.190025   1.038029   -0.193834 O.3        1 UNL1     -0.4608
     54 C         -2.430989   -0.26658   0.149477 C.2        1 UNL1     0.3042
     55 O         -1.866503   -1.269728   -0.285134 O.2        1 UNL1     -0.2512
     56 C         -3.472428   -0.424065   1.220606 C.3        1 UNL1     0.0332
     57 C         -1.579005   2.222103   3.265603 C.3        1 UNL1     -0.0567
     58 C         1.877497   7.190025   -1.203596 C.3        1 UNL1     0.0210
     59 C         -1.098568   5.591769   2.93443 C.3        1 UNL1     0.0372
     60 C         0.667323   5.216107   0.57442 C.2        1 UNL1     -0.0208
     61 C         1.581857   5.649408   1.443109 C.2        1 UNL1     0.0882
     62 H         4.701891   2.717632   0.573981 H        1 UNL1     0.0365
     63 H         6.352988   3.582956   -0.259878 H        1 UNL1     0.0576
     64 H         8.349021   1.451541   -1.244612 H        1 UNL1     0.0615
     65 H         8.29702   4.568663   -1.441352 H        1 UNL1     0.0622
     66 H         -1.405681   5.343406   0.493233 H        1 UNL1     0.0645
     67 H         -1.839432   3.644299   -0.700544 H        1 UNL1     0.0362
     68 H         -2.528039   2.519162   1.053269 H        1 UNL1     0.0741
     69 H         -1.197056   0.537063   2.204857 H        1 UNL1     0.0359
     70 H         0.907986   0.734154   2.9325 H        1 UNL1     0.0600
     71 H         1.794608   -0.404513   1.313226 H        1 UNL1     0.0348
     72 H         3.361834   1.459783   1.29748 H        1 UNL1     0.0602
     73 H         0.786778   5.409776   -0.46263 H        1 UNL1     0.0628
     74 H         1.562666   5.441934   2.51354 H        1 UNL1     0.1022
     75 H         10.966512   2.196447   -3.430946 H        1 UNL1     0.0279
     76 H         10.814897   3.381696   -4.666057 H        1 UNL1     0.0279
     77 H         11.933857   3.602237   -3.260857 H        1 UNL1     0.0279
     78 H         9.090315   4.752003   -5.028806 H        1 UNL1     0.1553
     79 H         7.804352   3.287503   -4.671366 H        1 UNL1     0.1484
     80 H         4.052302   2.702325   -4.809859 H        1 UNL1     0.0317
     81 H         4.794672   4.225064   -5.278985 H        1 UNL1     0.0317
     82 H         6.701674   3.023057   -6.379997 H        1 UNL1     0.0428
     83 H         5.143932   2.55261   -7.023287 H        1 UNL1     0.0428
     84 H         6.90839   -0.084431   -4.188531 H        1 UNL1     0.0428
     85 H         7.825259   1.320906   -4.605067 H        1 UNL1     0.0428
     86 H         6.531954   1.405475   -2.473152 H        1 UNL1     0.0317
     87 H         5.03545   1.183213   -3.256368 H        1 UNL1     0.0317
     88 H         7.271673   0.830235   -7.376487 H        1 UNL1     0.0429
     89 H         6.90046   -0.652994   -6.494177 H        1 UNL1     0.0429
     90 H         4.363871   0.172416   -7.302141 H        1 UNL1     0.0308
     91 H         6.311072   0.978783   -9.541112 H        1 UNL1     0.0233
     92 H         4.542401   0.837713   -9.706637 H        1 UNL1     0.0233
     93 H         5.236592   2.076407   -8.682753 H        1 UNL1     0.0233
     94 H         4.644371   -1.524352   -9.146334 H        1 UNL1     0.0233
     95 H         6.341459   -1.655638   -8.659524 H        1 UNL1     0.0233
     96 H         5.052241   -2.084359   -7.511437 H        1 UNL1     0.0233
     97 H         4.185973   10.507057   -0.12564 H        1 UNL1     0.0280
     98 H         5.799062   11.114676   -0.382411 H        1 UNL1     0.0280
     99 H         4.624663   11.117828   -1.731672 H        1 UNL1     0.0280
     100 H         6.73941   10.686467   -3.038322 H        1 UNL1     0.2922
     101 H         4.701287   0.875697   2.435405 H        1 UNL1     0.0236
     102 H         6.020852   2.108485   2.506408 H        1 UNL1     0.0236
     103 H         6.318826   0.497325   1.931195 H        1 UNL1     0.0236
     104 H         4.325648   -0.570375   1.279712 H        1 UNL1     0.2098
     105 H         0.708663   1.282569   -0.929302 H        1 UNL1     0.0234
     106 H         1.290946   -0.404148   -1.013126 H        1 UNL1     0.0234
     107 H         0.0   -0.0   0.0 H        1 UNL1     0.0234
     108 H         1.216268   3.264018   1.740278 H        1 UNL1     0.2098
     109 H         1.092633   3.046266   -0.858144 H        1 UNL1     0.0234
     110 H         -0.167491   2.335687   -1.916429 H        1 UNL1     0.0234
     111 H         0.094444   4.044417   -1.894613 H        1 UNL1     0.0234
     112 H         -3.610088   -1.484483   1.452794 H        1 UNL1     0.0342
     113 H         -3.227072   0.143519   2.116983 H        1 UNL1     0.0342
     114 H         -4.424976   -0.037888   0.832425 H        1 UNL1     0.0342
     115 H         -2.649846   1.979144   3.303798 H        1 UNL1     0.0234
     116 H         -1.144466   1.94302   4.227548 H        1 UNL1     0.0234
     117 H         -1.612215   3.323988   3.213751 H        1 UNL1     0.0234
     118 H         0.978565   7.682504   -0.79324 H        1 UNL1     0.0309
     119 H         2.250208   7.773741   -2.051278 H        1 UNL1     0.0309
     120 H         1.484642   6.258734   -1.626051 H        1 UNL1     0.0309
     121 H         -0.274029   6.290533   2.795785 H        1 UNL1     0.0524
     122 H         -2.015766   6.084224   2.570736 H        1 UNL1     0.0524
     123 H         -1.2183   5.357671   3.988449 H        1 UNL1     0.0524
@<TRIPOS>BOND
     1     1     2    1
     2     1    42    1
     3     2     3    2
     4     3     4    1
     5     4     5    2
     6     5     7    1
     7     6    75    1
     8     6    76    1
     9     6    77    1
    10     7     9   am
    11     9    10    1
    12    10    11    2
    13    10    43    1
    14    11    14    1
    15    11    15    1
    16    12    13   ar
    17    12    27   ar
    18    12    43    1
    19    13    14    1
    20    13    30   ar
    21    14    17    2
    22    15    16    1
    23    16    17    1
    24    16    18    1
    25    16    22    1
    26    18    19    1
    27    19    20    1
    28    20    21    1
    29    21    22    1
    30    23    24    1
    31    23    88    1
    32    23    89    1
    33    24    25    1
    34    24    26    1
    35    24    90    1
    36    25    91    1
    37    25    92    1
    38    25    93    1
    39    26    94    1
    40    26    95    1
    41    26    96    1
    42    27    28   ar
    43    28    29   ar
    44    29    30   ar
    45    29    31    1
    46    30    33    1
    47    31    32    1
    48    32    33    1
    49    32    35    1
    50    34    97    1
    51    34    98    1
    52    34    99    1
    53    35    61    1
    54    36    37    1
    55    36    60    1
    56    37    38    1
    57    38    39    1
    58    39    40    1
    59    40    41    1
    60    41    42    1
    61    45   100    1
    62    47   101    1
    63    47   102    1
    64    47   103    1
    65    48   104    1
    66    49   105    1
    67    49   106    1
    68    49   107    1
    69    50   108    1
    70    51    59    1
    71    52   109    1
    72    52   110    1
    73    52   111    1
    74    53    54    1
    75    54    55    2
    76    54    56    1
    77    56   112    1
    78    56   113    1
    79    56   114    1
    80    57   115    1
    81    57   116    1
    82    57   117    1
    83    58   118    1
    84    58   119    1
    85    58   120    1
    86    59   121    1
    87    59   122    1
    88    59   123    1
    89    60    61    2
    90     1    47    1
    91     1    62    1
    92     2    63    1
    93     3    64    1
    94     4    65    1
    95     5     6    1
    96     7     8    2
    97     9    78    1
    98    15    79    1
    99    18    80    1
   100    18    81    1
   101    19    82    1
   102    19    83    1
   103    20    23    1
   104    21    84    1
   105    21    85    1
   106    22    86    1
   107    22    87    1
   108    27    45    1
   109    28    34    1
   110    32    58    1
   111    33    46    2
   112    36    51    1
   113    36    66    1
   114    37    52    1
   115    37    67    1
   116    38    53    1
   117    38    68    1
   118    42    48    1
   119    42    72    1
   120    43    44    2
   121    60    73    1
   122    61    74    1
   123    39    69    1
   124    39    57    1
   125    40    70    1
   126    40    50    1
   127    41    71    1
   128    41    49    1
