@<TRIPOS>MOLECULE
*****
 123 128 0 0 0
SMALL
GASTEIGER

@<TRIPOS>ATOM
     1 C         -0.952357   -2.52251   -3.407547 C.3        1 UNL1     0.0009
     2 C         0.063457   -3.123306   -4.837303 C.2        1 UNL1     -0.0787
     3 C         0.623603   -2.914278   -6.155859 C.2        1 UNL1     -0.0649
     4 C         1.702461   -3.910818   -6.998077 C.2        1 UNL1     -0.0542
     5 C         2.652964   -3.967752   -8.047067 C.2        1 UNL1     0.0115
     6 C         3.241107   -3.185779   -9.253686 C.3        1 UNL1     -0.0348
     7 C         3.69329   -5.189674   -8.087282 C.2        1 UNL1     0.2441
     8 O         3.568581   -6.145245   -8.840844 O.2        1 UNL1     -0.2702
     9 N         4.892386   -4.96554   -7.388651 N.am        1 UNL1     -0.2772
     10 C         4.757117   -5.337642   -6.070864 C.2        1 UNL1     0.1049
     11 C         4.20021   -4.448107   -5.269114 C.2        1 UNL1     0.0801
     12 C         3.967023   -7.207178   -4.6087 C.ar        1 UNL1     0.0753
     13 C         3.210477   -6.224317   -3.894396 C.ar        1 UNL1     0.0305
     14 C         3.406786   -4.794232   -4.121049 C.2        1 UNL1     0.0924
     15 N         3.927803   -3.1485   -5.477306 N.pl3        1 UNL1     -0.3170
     16 C         3.48059   -2.587968   -4.229885 C.3        1 UNL1     0.1275
     17 N         2.872708   -3.753408   -3.488297 N.2        1 UNL1     -0.2557
     18 C         4.724422   -2.187292   -3.442456 C.3        1 UNL1     0.0016
     19 C         5.555173   -1.240661   -4.294119 C.3        1 UNL1     0.0026
     20 N         4.745821   -0.0756   -4.623682 N.3        1 UNL1     -0.3018
     21 C         3.495907   -0.366262   -5.329089 C.3        1 UNL1     0.0026
     22 C         2.675154   -1.314883   -4.453659 C.3        1 UNL1     0.0016
     23 C         5.525621   1.015717   -5.172846 C.3        1 UNL1     0.0012
     24 C         7.026377   0.691196   -5.10823 C.3        1 UNL1     -0.0339
     25 C         7.418993   0.116745   -3.73713 C.3        1 UNL1     -0.0615
     26 C         7.404628   -0.250733   -6.238042 C.3        1 UNL1     -0.0615
     27 C         3.861783   -8.561871   -4.302354 C.ar        1 UNL1     0.1347
     28 C         3.06651   -9.048466   -3.280191 C.ar        1 UNL1     0.0342
     29 C         2.29382   -8.067602   -2.622909 C.ar        1 UNL1     0.1435
     30 C         2.361662   -6.711086   -2.943038 C.ar        1 UNL1     0.0774
     31 O         1.552899   -8.367259   -1.533759 O.3        1 UNL1     -0.4436
     32 C         1.321272   -7.103292   -0.893753 C.3        1 UNL1     0.3143
     33 C         1.480721   -6.069155   -1.989815 C.2        1 UNL1     0.2504
     34 C         3.093762   -10.447996   -2.731853 C.3        1 UNL1     -0.0327
     35 O         -0.053523   -7.075485   -0.490742 O.2        1 UNL1     -0.4528
     36 C         -0.185352   -4.888173   2.608673 C.3        1 UNL1     0.0854
     37 C         0.277389   -3.39163   2.792389 C.3        1 UNL1     0.0236
     38 C         -0.849028   -2.400587   3.358746 C.3        1 UNL1     0.1131
     39 C         -2.273578   -2.357035   2.672429 C.3        1 UNL1     0.0200
     40 C         -2.410668   -2.35155   1.010017 C.3        1 UNL1     0.0661
     41 C         -1.574952   -1.326786   -0.052551 C.3        1 UNL1     0.0091
     42 C         -0.979207   -1.616551   -1.76326 C.3        1 UNL1     0.0661
     43 C         4.934745   -6.728151   -5.626692 C.2        1 UNL1     0.2131
     44 O         5.88708   -7.382707   -6.010555 O.2        1 UNL1     -0.2851
     45 O         4.597817   -9.45721   -5.075697 O.3        1 UNL1     -0.5056
     46 O         0.976339   -4.971361   -2.069184 O.2        1 UNL1     -0.2836
     47 C         -2.464286   -2.594153   -3.752392 C.3        1 UNL1     -0.0566
     48 O         -1.516211   -0.337957   -2.288559 O.3        1 UNL1     -0.3909
     49 C         -0.446247   -0.658626   0.700496 C.3        1 UNL1     -0.0577
     50 O         -2.417639   -3.671015   0.503375 O.3        1 UNL1     -0.3910
     51 O         -1.560905   -5.134867   2.794224 O.3        1 UNL1     -0.3753
     52 C         1.286996   -2.954243   1.681381 C.3        1 UNL1     -0.0564
     53 O         -0.304673   -1.091755   3.85166 O.3        1 UNL1     -0.4608
     54 C         -1.053107   0.010515   4.172246 C.2        1 UNL1     0.3042
     55 O         -2.224993   0.034538   4.546337 O.2        1 UNL1     -0.2512
     56 C         -0.288019   1.300863   4.092524 C.3        1 UNL1     0.0332
     57 C         -3.235936   -3.333311   3.496399 C.3        1 UNL1     -0.0567
     58 C         2.46054   -6.918939   0.135621 C.3        1 UNL1     0.0210
     59 C         -2.428564   -4.17765   2.18861 C.3        1 UNL1     0.0372
     60 C         0.190223   -5.507412   1.308424 C.2        1 UNL1     -0.0208
     61 C         -0.525557   -6.25724   0.469281 C.2        1 UNL1     0.0882
     62 H         -0.709564   -3.447677   -2.87105 H        1 UNL1     0.0365
     63 H         0.304544   -4.135138   -4.504821 H        1 UNL1     0.0576
     64 H         0.513722   -1.962355   -6.680145 H        1 UNL1     0.0615
     65 H         1.677748   -4.851238   -6.440866 H        1 UNL1     0.0622
     66 H         0.36783   -5.4446   3.378363 H        1 UNL1     0.0645
     67 H         0.981909   -3.431151   3.641299 H        1 UNL1     0.0362
     68 H         -1.015011   -2.856264   4.346841 H        1 UNL1     0.0741
     69 H         -2.76762   -1.436722   2.954127 H        1 UNL1     0.0359
     70 H         -3.458299   -2.00986   0.906204 H        1 UNL1     0.0600
     71 H         -2.303522   -0.496346   -0.133256 H        1 UNL1     0.0348
     72 H         -1.750884   -2.377771   -1.577859 H        1 UNL1     0.0602
     73 H         1.231813   -5.378446   1.148092 H        1 UNL1     0.0628
     74 H         -1.606094   -6.39113   0.530533 H        1 UNL1     0.1022
     75 H         2.563258   -3.261529   -10.13789 H        1 UNL1     0.0279
     76 H         3.345775   -2.110201   -9.130214 H        1 UNL1     0.0279
     77 H         4.162104   -3.640514   -9.64698 H        1 UNL1     0.0279
     78 H         5.117459   -3.972994   -7.405142 H        1 UNL1     0.1553
     79 H         4.357366   -2.597867   -6.19787 H        1 UNL1     0.1484
     80 H         4.415506   -1.713934   -2.502633 H        1 UNL1     0.0317
     81 H         5.315767   -3.068112   -3.170208 H        1 UNL1     0.0317
     82 H         5.928862   -1.733203   -5.203884 H        1 UNL1     0.0428
     83 H         6.437875   -0.96897   -3.714402 H        1 UNL1     0.0428
     84 H         2.869742   0.516133   -5.493739 H        1 UNL1     0.0428
     85 H         3.678221   -0.756424   -6.339956 H        1 UNL1     0.0428
     86 H         1.718744   -1.398979   -4.935526 H        1 UNL1     0.0317
     87 H         2.436484   -0.831214   -3.49857 H        1 UNL1     0.0317
     88 H         5.240641   1.143291   -6.22537 H        1 UNL1     0.0429
     89 H         5.302662   1.961491   -4.66238 H        1 UNL1     0.0429
     90 H         7.600177   1.609734   -5.279269 H        1 UNL1     0.0308
     91 H         8.133574   -0.705361   -3.840178 H        1 UNL1     0.0233
     92 H         7.85427   0.892953   -3.103375 H        1 UNL1     0.0233
     93 H         6.556259   -0.278672   -3.187429 H        1 UNL1     0.0233
     94 H         6.71036   -0.132285   -7.07697 H        1 UNL1     0.0233
     95 H         8.410797   -0.017799   -6.597663 H        1 UNL1     0.0233
     96 H         7.378835   -1.294557   -5.912874 H        1 UNL1     0.0233
     97 H         3.071576   -11.19485   -3.519855 H        1 UNL1     0.0280
     98 H         4.005236   -10.64822   -2.153597 H        1 UNL1     0.0280
     99 H         2.218426   -10.606406   -2.080863 H        1 UNL1     0.0280
     100 H         4.085422   -10.127083   -5.493243 H        1 UNL1     0.2922
     101 H         -2.656406   -2.051752   -4.67789 H        1 UNL1     0.0236
     102 H         -3.105867   -2.255928   -2.939397 H        1 UNL1     0.0236
     103 H         -2.793399   -3.626163   -3.959357 H        1 UNL1     0.0236
     104 H         -1.933385   -0.525837   -3.152062 H        1 UNL1     0.2098
     105 H         -0.764685   -0.068377   1.556075 H        1 UNL1     0.0234
     106 H         0.369313   -1.324128   0.983156 H        1 UNL1     0.0234
     107 H         0.0   0.0   0.0 H        1 UNL1     0.0234
     108 H         -1.608574   -3.780247   -0.032584 H        1 UNL1     0.2098
     109 H         2.282685   -2.730194   2.088955 H        1 UNL1     0.0234
     110 H         1.3788   -3.685575   0.871153 H        1 UNL1     0.0234
     111 H         0.959433   -2.03623   1.175515 H        1 UNL1     0.0234
     112 H         -0.342768   1.703831   3.076667 H        1 UNL1     0.0342
     113 H         -0.637963   2.030189   4.821542 H        1 UNL1     0.0342
     114 H         0.766934   1.088479   4.314179 H        1 UNL1     0.0342
     115 H         -3.393952   -4.287145   2.97446 H        1 UNL1     0.0234
     116 H         -2.878455   -3.564452   4.501799 H        1 UNL1     0.0234
     117 H         -4.271853   -2.962111   3.580238 H        1 UNL1     0.0234
     118 H         3.059419   -6.01367   -0.066459 H        1 UNL1     0.0309
     119 H         2.104129   -6.889023   1.170164 H        1 UNL1     0.0309
     120 H         3.200256   -7.72585   0.092953 H        1 UNL1     0.0309
     121 H         -1.827518   -3.567758   1.514716 H        1 UNL1     0.0524
     122 H         -3.221659   -4.653065   1.587763 H        1 UNL1     0.0524
     123 H         -2.888795   -3.553352   2.949224 H        1 UNL1     0.0524
@<TRIPOS>BOND
     1     1     2    1
     2     1    42    1
     3     2     3    2
     4     3     4    1
     5     4     5    2
     6     5     7    1
     7     6    75    1
     8     6    76    1
     9     6    77    1
    10     7     9   am
    11     9    10    1
    12    10    11    2
    13    10    43    1
    14    11    14    1
    15    11    15    1
    16    12    13   ar
    17    12    27   ar
    18    12    43    1
    19    13    14    1
    20    13    30   ar
    21    14    17    2
    22    15    16    1
    23    16    17    1
    24    16    18    1
    25    16    22    1
    26    18    19    1
    27    19    20    1
    28    20    21    1
    29    21    22    1
    30    23    24    1
    31    23    88    1
    32    23    89    1
    33    24    25    1
    34    24    26    1
    35    24    90    1
    36    25    91    1
    37    25    92    1
    38    25    93    1
    39    26    94    1
    40    26    95    1
    41    26    96    1
    42    27    28   ar
    43    28    29   ar
    44    29    30   ar
    45    29    31    1
    46    30    33    1
    47    31    32    1
    48    32    33    1
    49    32    35    1
    50    34    97    1
    51    34    98    1
    52    34    99    1
    53    35    61    1
    54    36    37    1
    55    36    60    1
    56    37    38    1
    57    38    39    1
    58    39    40    1
    59    40    41    1
    60    41    42    1
    61    45   100    1
    62    47   101    1
    63    47   102    1
    64    47   103    1
    65    48   104    1
    66    49   105    1
    67    49   106    1
    68    49   107    1
    69    50   108    1
    70    51    59    1
    71    52   109    1
    72    52   110    1
    73    52   111    1
    74    53    54    1
    75    54    55    2
    76    54    56    1
    77    56   112    1
    78    56   113    1
    79    56   114    1
    80    57   115    1
    81    57   116    1
    82    57   117    1
    83    58   118    1
    84    58   119    1
    85    58   120    1
    86    59   121    1
    87    59   122    1
    88    59   123    1
    89    60    61    2
    90     1    47    1
    91     1    62    1
    92     2    63    1
    93     3    64    1
    94     4    65    1
    95     5     6    1
    96     7     8    2
    97     9    78    1
    98    15    79    1
    99    18    80    1
   100    18    81    1
   101    19    82    1
   102    19    83    1
   103    20    23    1
   104    21    84    1
   105    21    85    1
   106    22    86    1
   107    22    87    1
   108    27    45    1
   109    28    34    1
   110    32    58    1
   111    33    46    2
   112    36    51    1
   113    36    66    1
   114    37    52    1
   115    37    67    1
   116    38    53    1
   117    38    68    1
   118    42    48    1
   119    42    72    1
   120    43    44    2
   121    60    73    1
   122    61    74    1
   123    39    69    1
   124    39    57    1
   125    40    70    1
   126    40    50    1
   127    41    71    1
   128    41    49    1
