@<TRIPOS>MOLECULE
*****
 123 128 0 0 0
SMALL
GASTEIGER

@<TRIPOS>ATOM
     1 C         1.934832   -3.689484   0.443906 C.3        1 UNL1     0.0009
     2 C         2.800613   -4.670892   -0.869219 C.2        1 UNL1     -0.0787
     3 C         2.822927   -5.781281   -1.797974 C.2        1 UNL1     -0.0649
     4 C         3.996428   -6.13841   -2.964898 C.2        1 UNL1     -0.0542
     5 C         4.265131   -6.845502   -4.16277 C.2        1 UNL1     0.0115
     6 C         3.707012   -7.912443   -5.144331 C.3        1 UNL1     -0.0348
     7 C         5.540347   -6.426108   -5.043067 C.2        1 UNL1     0.2441
     8 O         6.5874   -7.058723   -5.041133 O.2        1 UNL1     -0.2702
     9 N         5.288551   -5.438684   -6.011439 N.am        1 UNL1     -0.2772
     10 C         5.453072   -4.183732   -5.471669 C.2        1 UNL1     0.1049
     11 C         4.422801   -3.69801   -4.803211 C.2        1 UNL1     0.0801
     12 C         7.034835   -2.799579   -4.115394 C.ar        1 UNL1     0.0753
     13 C         5.913254   -2.467056   -3.290716 C.ar        1 UNL1     0.0305
     14 C         4.546872   -2.80092   -3.686424 C.2        1 UNL1     0.0924
     15 N         3.154102   -4.136269   -4.733496 N.pl3        1 UNL1     -0.3170
     16 C         2.389442   -3.155222   -4.010243 C.3        1 UNL1     0.1275
     17 N         3.393593   -2.487333   -3.102868 N.2        1 UNL1     -0.2557
     18 C         1.952964   -2.092314   -5.013944 C.3        1 UNL1     0.0016
     19 C         1.194574   -2.771816   -6.142975 C.3        1 UNL1     0.0026
     20 N         0.044093   -3.466567   -5.581955 N.3        1 UNL1     -0.3018
     21 C         0.359485   -4.467149   -4.560323 C.3        1 UNL1     0.0026
     22 C         1.116936   -3.761935   -3.433896 C.3        1 UNL1     0.0016
     23 C         -0.904889   -3.892316   -6.591318 C.3        1 UNL1     0.0012
     24 C         -1.629553   -2.679059   -7.195162 C.3        1 UNL1     -0.0339
     25 C         -1.391557   -2.578957   -8.710878 C.3        1 UNL1     -0.0615
     26 C         -3.110734   -2.739612   -6.864684 C.3        1 UNL1     -0.0615
     27 C         8.32054   -2.372704   -3.791578 C.ar        1 UNL1     0.1347
     28 C         8.601762   -1.57809   -2.694512 C.ar        1 UNL1     0.0342
     29 C         7.489596   -1.304109   -1.870385 C.ar        1 UNL1     0.1435
     30 C         6.201862   -1.755284   -2.16262 C.ar        1 UNL1     0.0774
     31 O         7.579677   -0.453134   -0.825046 O.3        1 UNL1     -0.4436
     32 C         6.223366   -0.071209   -0.550407 C.3        1 UNL1     0.3143
     33 C         5.374019   -1.190817   -1.117239 C.2        1 UNL1     0.2504
     34 C         9.904017   -0.877337   -2.423998 C.3        1 UNL1     -0.0327
     35 O         6.053114   -0.097602   0.872116 O.2        1 UNL1     -0.4528
     36 C         3.42813   2.53008   1.654951 C.3        1 UNL1     0.0854
     37 C         1.951677   2.655329   1.114653 C.3        1 UNL1     0.0236
     38 C         0.821461   2.737723   2.249364 C.3        1 UNL1     0.1131
     39 C         0.793528   1.662463   3.409237 C.3        1 UNL1     0.0200
     40 C         1.025319   0.046082   3.068614 C.3        1 UNL1     0.0661
     41 C         0.221246   -0.841478   1.867234 C.3        1 UNL1     0.0091
     42 C         0.796029   -2.251298   0.84379 C.3        1 UNL1     0.0661
     43 C         6.770915   -3.538522   -5.374985 C.2        1 UNL1     0.2131
     44 O         7.53146   -3.540865   -6.325934 O.2        1 UNL1     -0.2851
     45 O         9.363198   -2.778041   -4.622243 O.3        1 UNL1     -0.5056
     46 O         4.271468   -1.550352   -0.769435 O.2        1 UNL1     -0.2836
     47 C         1.964893   -4.452642   1.795449 C.3        1 UNL1     -0.0566
     48 O         -0.421124   -3.065373   1.078172 O.3        1 UNL1     -0.3909
     49 C         -0.481183   0.12186   0.936607 C.3        1 UNL1     -0.0577
     50 O         2.402266   -0.272863   3.064903 O.3        1 UNL1     -0.3910
     51 O         3.560927   2.33135   3.044304 O.3        1 UNL1     -0.3753
     52 C         1.745137   1.845728   -0.207027 C.3        1 UNL1     -0.0564
     53 O         -0.510406   3.203225   1.737737 O.3        1 UNL1     -0.4608
     54 C         -1.714178   3.010359   2.363569 C.2        1 UNL1     0.3042
     55 O         -2.579217   2.182628   2.080007 O.2        1 UNL1     -0.2512
     56 C         -1.921584   3.90046   3.555801 C.3        1 UNL1     0.0332
     57 C         1.577299   2.280633   4.658935 C.3        1 UNL1     -0.0567
     58 C         5.958372   1.216937   -1.364033 C.3        1 UNL1     0.0210
     59 C         4.809902   2.749588   3.592944 C.3        1 UNL1     0.0372
     60 C         4.254206   1.485138   0.990982 C.2        1 UNL1     -0.0208
     61 C         5.074985   0.571915   1.511645 C.2        1 UNL1     0.0882
     62 H         2.783612   -2.995154   0.457635 H        1 UNL1     0.0365
     63 H         3.764974   -4.159673   -0.902899 H        1 UNL1     0.0576
     64 H         1.953982   -6.428209   -1.937707 H        1 UNL1     0.0615
     65 H         4.841002   -5.501341   -2.688634 H        1 UNL1     0.0622
     66 H         3.897263   3.491183   1.40149 H        1 UNL1     0.0645
     67 H         1.908   3.67213   0.687139 H        1 UNL1     0.0362
     68 H         1.115315   3.681544   2.733486 H        1 UNL1     0.0741
     69 H         -0.186516   1.670081   3.867347 H        1 UNL1     0.0359
     70 H         0.639876   -0.403067   4.0039 H        1 UNL1     0.0600
     71 H         -0.630763   -1.235228   2.455451 H        1 UNL1     0.0348
     72 H         1.47336   -2.208696   1.709078 H        1 UNL1     0.0602
     73 H         4.213671   1.623983   -0.060839 H        1 UNL1     0.0628
     74 H         5.132654   0.32832   2.573046 H        1 UNL1     0.1022
     75 H         3.332921   -8.803022   -4.58401 H        1 UNL1     0.0279
     76 H         2.83857   -7.623745   -5.732149 H        1 UNL1     0.0279
     77 H         4.489579   -8.363956   -5.771569 H        1 UNL1     0.0279
     78 H         4.324802   -5.510802   -6.330914 H        1 UNL1     0.1553
     79 H         2.742967   -4.760699   -5.402815 H        1 UNL1     0.1484
     80 H         1.328165   -1.351243   -4.500909 H        1 UNL1     0.0317
     81 H         2.818106   -1.551234   -5.411954 H        1 UNL1     0.0317
     82 H         1.837795   -3.462955   -6.707337 H        1 UNL1     0.0428
     83 H         0.894225   -1.996131   -6.848066 H        1 UNL1     0.0428
     84 H         -0.525212   -4.916715   -4.098789 H        1 UNL1     0.0428
     85 H         0.904978   -5.323115   -4.981128 H        1 UNL1     0.0428
     86 H         1.213178   -4.489805   -2.649721 H        1 UNL1     0.0317
     87 H         0.483958   -2.986986   -2.984573 H        1 UNL1     0.0317
     88 H         -0.348954   -4.40049   -7.39006 H        1 UNL1     0.0429
     89 H         -1.620223   -4.618879   -6.184898 H        1 UNL1     0.0429
     90 H         -1.254162   -1.764171   -6.721586 H        1 UNL1     0.0308
     91 H         -1.522791   -3.549314   -9.199026 H        1 UNL1     0.0233
     92 H         -2.074327   -1.855223   -9.162146 H        1 UNL1     0.0233
     93 H         -0.378428   -2.235598   -8.952762 H        1 UNL1     0.0233
     94 H         -3.581662   -3.575807   -7.392738 H        1 UNL1     0.0233
     95 H         -3.2479   -2.898524   -5.79142 H        1 UNL1     0.0233
     96 H         -3.621985   -1.816889   -7.15308 H        1 UNL1     0.0233
     97 H         10.103608   -0.784621   -1.360609 H        1 UNL1     0.0280
     98 H         10.760944   -1.419699   -2.844446 H        1 UNL1     0.0280
     99 H         9.875979   0.134756   -2.859862 H        1 UNL1     0.0280
     100 H         9.375068   -3.699171   -4.814601 H        1 UNL1     0.2922
     101 H         2.699527   -3.996723   2.458854 H        1 UNL1     0.0236
     102 H         2.127618   -5.523643   1.679435 H        1 UNL1     0.0236
     103 H         1.00857   -4.370911   2.338551 H        1 UNL1     0.0236
     104 H         -0.26895   -3.598499   1.882902 H        1 UNL1     0.2098
     105 H         -1.539839   -0.081114   0.795679 H        1 UNL1     0.0234
     106 H         -0.326273   1.175176   1.169961 H        1 UNL1     0.0234
     107 H         0.0   0.0   0.0 H        1 UNL1     0.0234
     108 H         2.495913   -1.149246   2.644247 H        1 UNL1     0.2098
     109 H         2.419923   2.178119   -1.008208 H        1 UNL1     0.0234
     110 H         1.84517   0.763738   -0.069066 H        1 UNL1     0.0234
     111 H         0.728719   1.970682   -0.603546 H        1 UNL1     0.0234
     112 H         -2.888227   3.681952   4.0197 H        1 UNL1     0.0342
     113 H         -1.112215   3.811686   4.278908 H        1 UNL1     0.0342
     114 H         -1.943324   4.942014   3.206721 H        1 UNL1     0.0342
     115 H         1.154351   1.941554   5.614617 H        1 UNL1     0.0234
     116 H         2.644412   2.050087   4.671895 H        1 UNL1     0.0234
     117 H         1.464045   3.374465   4.751919 H        1 UNL1     0.0234
     118 H         6.145797   2.128483   -0.769927 H        1 UNL1     0.0309
     119 H         6.53961   1.267281   -2.290225 H        1 UNL1     0.0309
     120 H         4.908324   1.31922   -1.659063 H        1 UNL1     0.0309
     121 H         5.504055   1.914043   3.507082 H        1 UNL1     0.0524
     122 H         5.244779   3.600376   3.042418 H        1 UNL1     0.0524
     123 H         4.68757   3.029664   4.635386 H        1 UNL1     0.0524
@<TRIPOS>BOND
     1     1     2    1
     2     1    42    1
     3     2     3    2
     4     3     4    1
     5     4     5    2
     6     5     7    1
     7     6    75    1
     8     6    76    1
     9     6    77    1
    10     7     9   am
    11     9    10    1
    12    10    11    2
    13    10    43    1
    14    11    14    1
    15    11    15    1
    16    12    13   ar
    17    12    27   ar
    18    12    43    1
    19    13    14    1
    20    13    30   ar
    21    14    17    2
    22    15    16    1
    23    16    17    1
    24    16    18    1
    25    16    22    1
    26    18    19    1
    27    19    20    1
    28    20    21    1
    29    21    22    1
    30    23    24    1
    31    23    88    1
    32    23    89    1
    33    24    25    1
    34    24    26    1
    35    24    90    1
    36    25    91    1
    37    25    92    1
    38    25    93    1
    39    26    94    1
    40    26    95    1
    41    26    96    1
    42    27    28   ar
    43    28    29   ar
    44    29    30   ar
    45    29    31    1
    46    30    33    1
    47    31    32    1
    48    32    33    1
    49    32    35    1
    50    34    97    1
    51    34    98    1
    52    34    99    1
    53    35    61    1
    54    36    37    1
    55    36    60    1
    56    37    38    1
    57    38    39    1
    58    39    40    1
    59    40    41    1
    60    41    42    1
    61    45   100    1
    62    47   101    1
    63    47   102    1
    64    47   103    1
    65    48   104    1
    66    49   105    1
    67    49   106    1
    68    49   107    1
    69    50   108    1
    70    51    59    1
    71    52   109    1
    72    52   110    1
    73    52   111    1
    74    53    54    1
    75    54    55    2
    76    54    56    1
    77    56   112    1
    78    56   113    1
    79    56   114    1
    80    57   115    1
    81    57   116    1
    82    57   117    1
    83    58   118    1
    84    58   119    1
    85    58   120    1
    86    59   121    1
    87    59   122    1
    88    59   123    1
    89    60    61    2
    90     1    47    1
    91     1    62    1
    92     2    63    1
    93     3    64    1
    94     4    65    1
    95     5     6    1
    96     7     8    2
    97     9    78    1
    98    15    79    1
    99    18    80    1
   100    18    81    1
   101    19    82    1
   102    19    83    1
   103    20    23    1
   104    21    84    1
   105    21    85    1
   106    22    86    1
   107    22    87    1
   108    27    45    1
   109    28    34    1
   110    32    58    1
   111    33    46    2
   112    36    51    1
   113    36    66    1
   114    37    52    1
   115    37    67    1
   116    38    53    1
   117    38    68    1
   118    42    48    1
   119    42    72    1
   120    43    44    2
   121    60    73    1
   122    61    74    1
   123    39    69    1
   124    39    57    1
   125    40    70    1
   126    40    50    1
   127    41    71    1
   128    41    49    1
