@<TRIPOS>MOLECULE
*****
 123 128 0 0 0
SMALL
GASTEIGER

@<TRIPOS>ATOM
     1 C         5.219384   1.447503   0.813659 C.3        1 UNL1     0.0009
     2 C         6.756429   2.148384   0.049922 C.2        1 UNL1     -0.0787
     3 C         8.071792   1.959907   -0.524833 C.2        1 UNL1     -0.0649
     4 C         9.071671   3.124294   -1.239537 C.2        1 UNL1     -0.0542
     5 C         10.168419   3.335726   -2.111041 C.2        1 UNL1     0.0115
     6 C         11.312047   2.625996   -2.886747 C.3        1 UNL1     -0.0348
     7 C         10.394511   4.797534   -2.73473 C.2        1 UNL1     0.2441
     8 O         11.23967   5.576369   -2.315626 O.2        1 UNL1     -0.2702
     9 N         9.738693   5.024135   -3.957312 N.am        1 UNL1     -0.2772
     10 C         8.463736   5.493155   -3.738615 C.2        1 UNL1     0.1049
     11 C         7.542625   4.580284   -3.488727 C.2        1 UNL1     0.0801
     12 C         7.173755   7.203775   -2.447467 C.ar        1 UNL1     0.0753
     13 C         6.319022   6.132824   -2.03382 C.ar        1 UNL1     0.0305
     14 C         6.399301   4.809152   -2.647416 C.2        1 UNL1     0.0924
     15 N         7.59446   3.243299   -3.616449 N.pl3        1 UNL1     -0.3170
     16 C         6.27221   2.727686   -3.379697 C.3        1 UNL1     0.1275
     17 N         5.630762   3.739628   -2.46196 N.2        1 UNL1     -0.2557
     18 C         5.511428   2.810844   -4.699545 C.3        1 UNL1     0.0016
     19 C         6.297385   2.059299   -5.762108 C.3        1 UNL1     0.0026
     20 N         6.456506   0.675986   -5.335314 N.3        1 UNL1     -0.3018
     21 C         7.123628   0.49653   -4.044147 C.3        1 UNL1     0.0026
     22 C         6.314809   1.255753   -2.99092 C.3        1 UNL1     0.0016
     23 C         6.923843   -0.191826   -6.397925 C.3        1 UNL1     0.0012
     24 C         5.823982   -0.39261   -7.45232 C.3        1 UNL1     -0.0339
     25 C         5.99892   0.570657   -8.637887 C.3        1 UNL1     -0.0615
     26 C         5.797758   -1.841159   -7.908169 C.3        1 UNL1     -0.0615
     27 C         7.010905   8.492518   -1.944734 C.ar        1 UNL1     0.1347
     28 C         6.007691   8.83897   -1.057275 C.ar        1 UNL1     0.0342
     29 C         5.208948   7.758343   -0.626672 C.ar        1 UNL1     0.1435
     30 C         5.383349   6.455135   -1.094062 C.ar        1 UNL1     0.0774
     31 O         4.121796   7.951767   0.151591 O.3        1 UNL1     -0.4436
     32 C         3.337534   6.761456   -0.018602 C.3        1 UNL1     0.3143
     33 C         4.321914   5.698684   -0.463266 C.2        1 UNL1     0.2504
     34 C         5.616309   10.238282   -0.67147 C.3        1 UNL1     -0.0327
     35 O         2.863299   6.374905   1.277134 O.2        1 UNL1     -0.4528
     36 C         -0.457434   4.631622   0.69251 C.3        1 UNL1     0.0854
     37 C         -0.777971   3.372838   -0.202052 C.3        1 UNL1     0.0236
     38 C         -1.50585   2.166759   0.56431 C.3        1 UNL1     0.1131
     39 C         -0.902912   1.621065   1.921127 C.3        1 UNL1     0.0200
     40 C         0.739795   1.377612   2.07824 C.3        1 UNL1     0.0661
     41 C         1.726925   0.528446   0.990995 C.3        1 UNL1     0.0091
     42 C         3.487472   0.776542   0.53897 C.3        1 UNL1     0.0661
     43 C         8.182571   6.916178   -3.497153 C.2        1 UNL1     0.2131
     44 O         8.683822   7.773448   -4.201832 O.2        1 UNL1     -0.2851
     45 O         7.91371   9.467436   -2.364155 O.3        1 UNL1     -0.5056
     46 O         4.255713   4.499366   -0.311252 O.2        1 UNL1     -0.2836
     47 C         5.491274   1.025599   2.282691 C.3        1 UNL1     -0.0566
     48 O         3.842707   -0.656762   0.675219 O.3        1 UNL1     -0.3909
     49 C         0.96535   0.319903   -0.298968 C.3        1 UNL1     -0.0577
     50 O         1.385323   2.565531   2.490387 O.3        1 UNL1     -0.3910
     51 O         -0.686091   4.479094   2.075218 O.3        1 UNL1     -0.3753
     52 C         0.329864   3.126075   -1.277579 C.3        1 UNL1     -0.0564
     53 O         -2.108795   1.146803   -0.356816 O.3        1 UNL1     -0.4608
     54 C         -2.444693   -0.136182   -0.011778 C.2        1 UNL1     0.3042
     55 O         -1.909394   -1.176492   -0.39263 O.2        1 UNL1     -0.2512
     56 C         -3.56252   -0.216859   0.988556 C.3        1 UNL1     0.0332
     57 C         -1.664974   2.35834   3.118567 C.3        1 UNL1     -0.0567
     58 C         2.354576   7.047295   -1.177748 C.3        1 UNL1     0.0210
     59 C         -0.975898   5.690038   2.771992 C.3        1 UNL1     0.0372
     60 C         0.919914   5.175318   0.542618 C.2        1 UNL1     -0.0208
     61 C         1.797172   5.573584   1.46487 C.2        1 UNL1     0.0882
     62 H         4.79953   2.45993   0.851431 H        1 UNL1     0.0365
     63 H         6.548415   3.218174   0.118835 H        1 UNL1     0.0576
     64 H         8.483501   0.963033   -0.697596 H        1 UNL1     0.0615
     65 H         8.619067   4.074227   -0.942453 H        1 UNL1     0.0622
     66 H         -1.132675   5.414517   0.319451 H        1 UNL1     0.0645
     67 H         -1.580014   3.7203   -0.87626 H        1 UNL1     0.0362
     68 H         -2.446033   2.666669   0.842998 H        1 UNL1     0.0741
     69 H         -1.307811   0.63589   2.110585 H        1 UNL1     0.0359
     70 H         0.751648   0.730541   2.976137 H        1 UNL1     0.0600
     71 H         1.67941   -0.484259   1.437232 H        1 UNL1     0.0348
     72 H         3.345935   1.290766   1.500664 H        1 UNL1     0.0602
     73 H         1.119006   5.343257   -0.486657 H        1 UNL1     0.0628
     74 H         1.694961   5.386976   2.534434 H        1 UNL1     0.1022
     75 H         11.276778   1.52317   -2.714798 H        1 UNL1     0.0279
     76 H         11.278039   2.695128   -3.971705 H        1 UNL1     0.0279
     77 H         12.30943   2.874632   -2.495456 H        1 UNL1     0.0279
     78 H         9.659206   4.148546   -4.470248 H        1 UNL1     0.1553
     79 H         8.272399   2.763453   -4.179547 H        1 UNL1     0.1484
     80 H         4.511148   2.382325   -4.563247 H        1 UNL1     0.0317
     81 H         5.367143   3.853314   -5.003009 H        1 UNL1     0.0317
     82 H         7.273252   2.528794   -5.954903 H        1 UNL1     0.0428
     83 H         5.738099   2.132788   -6.695301 H        1 UNL1     0.0428
     84 H         7.15912   -0.544981   -3.709771 H        1 UNL1     0.0428
     85 H         8.178877   0.800197   -4.083558 H        1 UNL1     0.0428
     86 H         6.75282   0.994265   -2.045532 H        1 UNL1     0.0317
     87 H         5.301891   0.84013   -2.924963 H        1 UNL1     0.0317
     88 H         7.785075   0.290273   -6.878711 H        1 UNL1     0.0429
     89 H         7.273439   -1.154094   -6.002202 H        1 UNL1     0.0429
     90 H         4.846589   -0.205765   -6.99188 H        1 UNL1     0.0308
     91 H         6.981005   0.45184   -9.105321 H        1 UNL1     0.0233
     92 H         5.222226   0.404909   -9.388142 H        1 UNL1     0.0233
     93 H         5.914629   1.62212   -8.337629 H        1 UNL1     0.0233
     94 H         5.154359   -1.948614   -8.788128 H        1 UNL1     0.0233
     95 H         6.805146   -2.163817   -8.185701 H        1 UNL1     0.0233
     96 H         5.420181   -2.500301   -7.121444 H        1 UNL1     0.0233
     97 H         4.767686   10.251908   0.005939 H        1 UNL1     0.0280
     98 H         6.425758   10.765455   -0.1498 H        1 UNL1     0.0280
     99 H         5.346116   10.808413   -1.575373 H        1 UNL1     0.0280
     100 H         7.51599   10.23813   -2.729492 H        1 UNL1     0.2922
     101 H         4.571647   0.654955   2.73498 H        1 UNL1     0.0236
     102 H         5.950362   1.814674   2.877319 H        1 UNL1     0.0236
     103 H         6.195568   0.179412   2.346953 H        1 UNL1     0.0236
     104 H         4.193799   -0.789141   1.577539 H        1 UNL1     0.2098
     105 H         0.846878   1.217506   -0.900702 H        1 UNL1     0.0234
     106 H         1.329291   -0.502428   -0.914798 H        1 UNL1     0.0234
     107 H         0.0   -0.0   0.0 H        1 UNL1     0.0234
     108 H         1.274921   3.219429   1.773452 H        1 UNL1     0.2098
     109 H         1.318009   2.959737   -0.826344 H        1 UNL1     0.0234
     110 H         0.093641   2.300144   -1.957123 H        1 UNL1     0.0234
     111 H         0.448631   3.992068   -1.942333 H        1 UNL1     0.0234
     112 H         -3.774436   -1.263741   1.2262 H        1 UNL1     0.0342
     113 H         -3.346242   0.352638   1.891186 H        1 UNL1     0.0342
     114 H         -4.463936   0.213809   0.531239 H        1 UNL1     0.0342
     115 H         -2.747876   2.175157   3.087691 H        1 UNL1     0.0234
     116 H         -1.311935   2.073407   4.111656 H        1 UNL1     0.0234
     117 H         -1.633005   3.459264   3.048658 H        1 UNL1     0.0234
     118 H         1.458452   7.594309   -0.836071 H        1 UNL1     0.0309
     119 H         2.814721   7.595535   -2.00594 H        1 UNL1     0.0309
     120 H         1.940553   6.131348   -1.61333 H        1 UNL1     0.0309
     121 H         -0.106175   6.339934   2.679394 H        1 UNL1     0.0524
     122 H         -1.837793   6.225313   2.339958 H        1 UNL1     0.0524
     123 H         -1.178659   5.48206   3.818762 H        1 UNL1     0.0524
@<TRIPOS>BOND
     1     1     2    1
     2     1    42    1
     3     2     3    2
     4     3     4    1
     5     4     5    2
     6     5     7    1
     7     6    75    1
     8     6    76    1
     9     6    77    1
    10     7     9   am
    11     9    10    1
    12    10    11    2
    13    10    43    1
    14    11    14    1
    15    11    15    1
    16    12    13   ar
    17    12    27   ar
    18    12    43    1
    19    13    14    1
    20    13    30   ar
    21    14    17    2
    22    15    16    1
    23    16    17    1
    24    16    18    1
    25    16    22    1
    26    18    19    1
    27    19    20    1
    28    20    21    1
    29    21    22    1
    30    23    24    1
    31    23    88    1
    32    23    89    1
    33    24    25    1
    34    24    26    1
    35    24    90    1
    36    25    91    1
    37    25    92    1
    38    25    93    1
    39    26    94    1
    40    26    95    1
    41    26    96    1
    42    27    28   ar
    43    28    29   ar
    44    29    30   ar
    45    29    31    1
    46    30    33    1
    47    31    32    1
    48    32    33    1
    49    32    35    1
    50    34    97    1
    51    34    98    1
    52    34    99    1
    53    35    61    1
    54    36    37    1
    55    36    60    1
    56    37    38    1
    57    38    39    1
    58    39    40    1
    59    40    41    1
    60    41    42    1
    61    45   100    1
    62    47   101    1
    63    47   102    1
    64    47   103    1
    65    48   104    1
    66    49   105    1
    67    49   106    1
    68    49   107    1
    69    50   108    1
    70    51    59    1
    71    52   109    1
    72    52   110    1
    73    52   111    1
    74    53    54    1
    75    54    55    2
    76    54    56    1
    77    56   112    1
    78    56   113    1
    79    56   114    1
    80    57   115    1
    81    57   116    1
    82    57   117    1
    83    58   118    1
    84    58   119    1
    85    58   120    1
    86    59   121    1
    87    59   122    1
    88    59   123    1
    89    60    61    2
    90     1    47    1
    91     1    62    1
    92     2    63    1
    93     3    64    1
    94     4    65    1
    95     5     6    1
    96     7     8    2
    97     9    78    1
    98    15    79    1
    99    18    80    1
   100    18    81    1
   101    19    82    1
   102    19    83    1
   103    20    23    1
   104    21    84    1
   105    21    85    1
   106    22    86    1
   107    22    87    1
   108    27    45    1
   109    28    34    1
   110    32    58    1
   111    33    46    2
   112    36    51    1
   113    36    66    1
   114    37    52    1
   115    37    67    1
   116    38    53    1
   117    38    68    1
   118    42    48    1
   119    42    72    1
   120    43    44    2
   121    60    73    1
   122    61    74    1
   123    39    69    1
   124    39    57    1
   125    40    70    1
   126    40    50    1
   127    41    71    1
   128    41    49    1
