@<TRIPOS>MOLECULE
*****
 123 128 0 0 0
SMALL
GASTEIGER

@<TRIPOS>ATOM
     1 C         5.166357   1.760445   0.457015 C.3        1 UNL1     0.0009
     2 C         6.595756   2.569227   -0.403059 C.2        1 UNL1     -0.0787
     3 C         7.873533   2.47348   -1.076976 C.2        1 UNL1     -0.0649
     4 C         8.74337   3.7101   -1.838891 C.2        1 UNL1     -0.0542
     5 C         9.756681   4.004451   -2.784214 C.2        1 UNL1     0.0115
     6 C         10.880656   3.380996   -3.656743 C.3        1 UNL1     -0.0348
     7 C         9.84484   5.487566   -3.392152 C.2        1 UNL1     0.2441
     8 O         10.669325   6.311242   -3.020254 O.2        1 UNL1     -0.2702
     9 N         9.086638   5.692209   -4.558086 N.am        1 UNL1     -0.2772
     10 C         7.805121   6.076245   -4.23629 C.2        1 UNL1     0.1049
     11 C         6.963378   5.10314   -3.938369 C.2        1 UNL1     0.0801
     12 C         6.512304   7.680844   -2.818116 C.ar        1 UNL1     0.0753
     13 C         5.758633   6.551517   -2.365114 C.ar        1 UNL1     0.0305
     14 C         5.874284   5.245706   -3.010509 C.2        1 UNL1     0.0924
     15 N         7.087901   3.774344   -4.0975 N.pl3        1 UNL1     -0.3170
     16 C         5.821416   3.172561   -3.774814 C.3        1 UNL1     0.1275
     17 N         5.189236   4.126955   -2.791348 N.2        1 UNL1     -0.2557
     18 C         4.960317   3.229027   -5.032996 C.3        1 UNL1     0.0016
     19 C         5.709419   2.54595   -6.166063 C.3        1 UNL1     0.0026
     20 N         5.985079   1.168668   -5.78118 N.3        1 UNL1     -0.3018
     21 C         6.756755   1.010667   -4.546709 C.3        1 UNL1     0.0026
     22 C         5.983726   1.700116   -3.421106 C.3        1 UNL1     0.0016
     23 C         6.424234   0.349473   -6.893253 C.3        1 UNL1     0.0012
     24 C         5.263039   0.09689   -7.86772 C.3        1 UNL1     -0.0339
     25 C         5.348228   1.018992   -9.095127 C.3        1 UNL1     -0.0615
     26 C         5.229738   -1.367349   -8.269809 C.3        1 UNL1     -0.0615
     27 C         6.308329   8.948394   -2.277905 C.ar        1 UNL1     0.1347
     28 C         5.354884   9.216384   -1.311896 C.ar        1 UNL1     0.0342
     29 C         4.658806   8.080657   -0.846314 C.ar        1 UNL1     0.1435
     30 C         4.877814   6.798825   -1.352439 C.ar        1 UNL1     0.0774
     31 O         3.623088   8.192425   0.013803 O.3        1 UNL1     -0.4436
     32 C         2.903229   6.957937   -0.123008 C.3        1 UNL1     0.3143
     33 C         3.915263   5.966757   -0.661118 C.2        1 UNL1     0.2504
     34 C         4.907883   10.581755   -0.869119 C.3        1 UNL1     -0.0327
     35 O         2.552048   6.521207   1.195776 O.2        1 UNL1     -0.4528
     36 C         -0.68922   4.581657   0.821056 C.3        1 UNL1     0.0854
     37 C         -0.997526   3.319883   -0.073593 C.3        1 UNL1     0.0236
     38 C         -1.590206   2.057979   0.718916 C.3        1 UNL1     0.1131
     39 C         -0.854902   1.529401   2.015914 C.3        1 UNL1     0.0200
     40 C         0.806838   1.387536   2.046448 C.3        1 UNL1     0.0661
     41 C         1.760342   0.620138   0.871909 C.3        1 UNL1     0.0091
     42 C         3.463452   0.986123   0.296695 C.3        1 UNL1     0.0661
     43 C         7.455552   7.474579   -3.945058 C.2        1 UNL1     0.2131
     44 O         7.848811   8.373115   -4.666665 O.2        1 UNL1     -0.2851
     45 O         7.115338   9.985019   -2.742216 O.3        1 UNL1     -0.5056
     46 O         3.934748   4.763338   -0.529759 O.2        1 UNL1     -0.2836
     47 C         5.572934   1.332684   1.892876 C.3        1 UNL1     -0.0566
     48 O         3.915643   -0.423943   0.376392 O.3        1 UNL1     -0.3909
     49 C         0.918687   0.384986   -0.36252 C.3        1 UNL1     -0.0577
     50 O         1.406873   2.606946   2.434674 O.3        1 UNL1     -0.3910
     51 O         -0.803911   4.392528   2.213359 O.3        1 UNL1     -0.3753
     52 C         0.039822   3.161032   -1.232741 C.3        1 UNL1     -0.0564
     53 O         -2.196312   1.017143   -0.176418 O.3        1 UNL1     -0.4608
     54 C         -2.394497   -0.297998   0.153821 C.2        1 UNL1     0.3042
     55 O         -1.720326   -1.265789   -0.196482 O.2        1 UNL1     -0.2512
     56 C         -3.544808   -0.514884   1.09534 C.3        1 UNL1     0.0332
     57 C         -1.569248   2.197551   3.281402 C.3        1 UNL1     -0.0567
     58 C         1.820522   7.200023   -1.200352 C.3        1 UNL1     0.0210
     59 C         -1.114921   5.571279   2.954767 C.3        1 UNL1     0.0372
     60 C         0.636871   5.213525   0.581503 C.2        1 UNL1     -0.0208
     61 C         1.554438   5.651278   1.444745 C.2        1 UNL1     0.0882
     62 H         4.688844   2.74362   0.546785 H        1 UNL1     0.0365
     63 H         6.327874   3.6225   -0.296647 H        1 UNL1     0.0576
     64 H         8.331878   1.507508   -1.300415 H        1 UNL1     0.0615
     65 H         8.256522   4.624629   -1.489465 H        1 UNL1     0.0622
     66 H         -1.4375   5.326363   0.515216 H        1 UNL1     0.0645
     67 H         -1.867682   3.626983   -0.679463 H        1 UNL1     0.0362
     68 H         -2.535945   2.492982   1.076509 H        1 UNL1     0.0741
     69 H         -1.18293   0.517693   2.214038 H        1 UNL1     0.0359
     70 H         0.925755   0.727976   2.9273 H        1 UNL1     0.0600
     71 H         1.808928   -0.400675   1.299153 H        1 UNL1     0.0348
     72 H         3.362825   1.474678   1.276748 H        1 UNL1     0.0602
     73 H         0.747635   5.410416   -0.455904 H        1 UNL1     0.0628
     74 H         1.544266   5.441214   2.514795 H        1 UNL1     0.1022
     75 H         10.876977   2.268131   -3.56426 H        1 UNL1     0.0279
     76 H         10.797933   3.527029   -4.731405 H        1 UNL1     0.0279
     77 H         11.88847   3.625647   -3.290468 H        1 UNL1     0.0279
     78 H         9.023163   4.821813   -5.081975 H        1 UNL1     0.1553
     79 H         7.750109   3.347447   -4.718928 H        1 UNL1     0.1484
     80 H         4.001392   2.736099   -4.832368 H        1 UNL1     0.0317
     81 H         4.729682   4.265118   -5.303134 H        1 UNL1     0.0317
     82 H         6.637289   3.079147   -6.420368 H        1 UNL1     0.0428
     83 H         5.078399   2.599187   -7.053774 H        1 UNL1     0.0428
     84 H         6.881364   -0.031833   -4.237714 H        1 UNL1     0.0428
     85 H         7.785343   1.380899   -4.657396 H        1 UNL1     0.0428
     86 H         6.506555   1.451431   -2.516233 H        1 UNL1     0.0317
     87 H         5.006163   1.220404   -3.289411 H        1 UNL1     0.0317
     88 H         7.21568   0.892701   -7.425993 H        1 UNL1     0.0429
     89 H         6.861167   -0.595136   -6.544576 H        1 UNL1     0.0429
     90 H         4.314025   0.287753   -7.352786 H        1 UNL1     0.0308
     91 H         6.363133   1.045487   -9.503009 H        1 UNL1     0.0233
     92 H         4.656997   0.68963   -9.87444 H        1 UNL1     0.0233
     93 H         5.072868   2.054167   -8.859703 H        1 UNL1     0.0233
     94 H         4.693211   -1.486738   -9.217291 H        1 UNL1     0.0233
     95 H         6.248438   -1.739572   -8.410028 H        1 UNL1     0.0233
     96 H         4.73198   -1.97819   -7.51147 H        1 UNL1     0.0233
     97 H         4.064516   10.533008   -0.186781 H        1 UNL1     0.0280
     98 H         5.698313   11.12195   -0.331842 H        1 UNL1     0.0280
     99 H         4.607212   11.174782   -1.74833 H        1 UNL1     0.0280
     100 H         6.648261   10.762542   -2.993052 H        1 UNL1     0.2922
     101 H         4.691327   1.001762   2.441434 H        1 UNL1     0.0236
     102 H         6.123313   2.104193   2.430314 H        1 UNL1     0.0236
     103 H         6.245145   0.458432   1.88983 H        1 UNL1     0.0236
     104 H         4.253254   -0.574747   1.280962 H        1 UNL1     0.2098
     105 H         0.70036   1.283001   -0.934983 H        1 UNL1     0.0234
     106 H         1.285562   -0.402619   -1.020554 H        1 UNL1     0.0234
     107 H         0.0   -0.0   0.0 H        1 UNL1     0.0234
     108 H         1.256235   3.247166   1.712736 H        1 UNL1     0.2098
     109 H         1.068759   3.062435   -0.85954 H        1 UNL1     0.0234
     110 H         -0.188456   2.325419   -1.903101 H        1 UNL1     0.0234
     111 H         0.046027   4.038243   -1.893355 H        1 UNL1     0.0234
     112 H         -3.634843   -1.578968   1.334012 H        1 UNL1     0.0342
     113 H         -3.450766   0.082119   2.001202 H        1 UNL1     0.0342
     114 H         -4.46784   -0.204594   0.58652 H        1 UNL1     0.0342
     115 H         -2.657295   2.045819   3.263502 H        1 UNL1     0.0234
     116 H         -1.202491   1.83191   4.24257 H        1 UNL1     0.0234
     117 H         -1.507867   3.29941   3.290292 H        1 UNL1     0.0234
     118 H         0.812424   7.296833   -0.76061 H        1 UNL1     0.0309
     119 H         2.0243   8.07542   -1.825139 H        1 UNL1     0.0309
     120 H         1.715719   6.354106   -1.888499 H        1 UNL1     0.0309
     121 H         -0.735571   5.433798   3.966967 H        1 UNL1     0.0524
     122 H         -0.628815   6.46866   2.537099 H        1 UNL1     0.0524
     123 H         -2.189429   5.729702   2.97547 H        1 UNL1     0.0524
@<TRIPOS>BOND
     1     1     2    1
     2     1    42    1
     3     2     3    2
     4     3     4    1
     5     4     5    2
     6     5     7    1
     7     6    75    1
     8     6    76    1
     9     6    77    1
    10     7     9   am
    11     9    10    1
    12    10    11    2
    13    10    43    1
    14    11    14    1
    15    11    15    1
    16    12    13   ar
    17    12    27   ar
    18    12    43    1
    19    13    14    1
    20    13    30   ar
    21    14    17    2
    22    15    16    1
    23    16    17    1
    24    16    18    1
    25    16    22    1
    26    18    19    1
    27    19    20    1
    28    20    21    1
    29    21    22    1
    30    23    24    1
    31    23    88    1
    32    23    89    1
    33    24    25    1
    34    24    26    1
    35    24    90    1
    36    25    91    1
    37    25    92    1
    38    25    93    1
    39    26    94    1
    40    26    95    1
    41    26    96    1
    42    27    28   ar
    43    28    29   ar
    44    29    30   ar
    45    29    31    1
    46    30    33    1
    47    31    32    1
    48    32    33    1
    49    32    35    1
    50    34    97    1
    51    34    98    1
    52    34    99    1
    53    35    61    1
    54    36    37    1
    55    36    60    1
    56    37    38    1
    57    38    39    1
    58    39    40    1
    59    40    41    1
    60    41    42    1
    61    45   100    1
    62    47   101    1
    63    47   102    1
    64    47   103    1
    65    48   104    1
    66    49   105    1
    67    49   106    1
    68    49   107    1
    69    50   108    1
    70    51    59    1
    71    52   109    1
    72    52   110    1
    73    52   111    1
    74    53    54    1
    75    54    55    2
    76    54    56    1
    77    56   112    1
    78    56   113    1
    79    56   114    1
    80    57   115    1
    81    57   116    1
    82    57   117    1
    83    58   118    1
    84    58   119    1
    85    58   120    1
    86    59   121    1
    87    59   122    1
    88    59   123    1
    89    60    61    2
    90     1    47    1
    91     1    62    1
    92     2    63    1
    93     3    64    1
    94     4    65    1
    95     5     6    1
    96     7     8    2
    97     9    78    1
    98    15    79    1
    99    18    80    1
   100    18    81    1
   101    19    82    1
   102    19    83    1
   103    20    23    1
   104    21    84    1
   105    21    85    1
   106    22    86    1
   107    22    87    1
   108    27    45    1
   109    28    34    1
   110    32    58    1
   111    33    46    2
   112    36    51    1
   113    36    66    1
   114    37    52    1
   115    37    67    1
   116    38    53    1
   117    38    68    1
   118    42    48    1
   119    42    72    1
   120    43    44    2
   121    60    73    1
   122    61    74    1
   123    39    69    1
   124    39    57    1
   125    40    70    1
   126    40    50    1
   127    41    71    1
   128    41    49    1
