@<TRIPOS>MOLECULE
*****
 123 128 0 0 0
SMALL
GASTEIGER

@<TRIPOS>ATOM
     1 C         1.52657   -2.307963   4.728076 C.3        1 UNL1     0.0009
     2 C         2.906043   -3.118659   5.664487 C.2        1 UNL1     -0.0787
     3 C         3.544456   -4.312722   6.177018 C.2        1 UNL1     -0.0649
     4 C         5.039547   -4.438353   6.961413 C.2        1 UNL1     -0.0542
     5 C         6.092464   -5.315792   7.319946 C.2        1 UNL1     0.0115
     6 C         6.520595   -6.808069   7.375938 C.3        1 UNL1     -0.0348
     7 C         7.511982   -4.695001   7.740154 C.2        1 UNL1     0.2441
     8 O         7.880872   -4.604963   8.903055 O.2        1 UNL1     -0.2702
     9 N         8.409197   -4.502697   6.675177 N.am        1 UNL1     -0.2772
     10 C         8.220132   -3.26448   6.105621 C.2        1 UNL1     0.1049
     11 C         7.247738   -3.175183   5.216409 C.2        1 UNL1     0.0801
     12 C         7.981873   -0.838452   6.666832 C.ar        1 UNL1     0.0753
     13 C         6.805809   -0.845759   5.851094 C.ar        1 UNL1     0.0305
     14 C         6.475821   -1.982592   4.99449 C.2        1 UNL1     0.0924
     15 N         6.537451   -4.143594   4.612919 N.pl3        1 UNL1     -0.3170
     16 C         5.720107   -3.524804   3.603314 C.3        1 UNL1     0.1275
     17 N         5.493232   -2.121007   4.10889 N.2        1 UNL1     -0.2557
     18 C         6.576877   -3.38958   2.34818 C.3        1 UNL1     0.0016
     19 C         7.107472   -4.763599   1.97118 C.3        1 UNL1     0.0026
     20 N         5.978286   -5.654182   1.741334 N.3        1 UNL1     -0.3018
     21 C         5.061167   -5.800263   2.873554 C.3        1 UNL1     0.0026
     22 C         4.536698   -4.408847   3.232426 C.3        1 UNL1     0.0016
     23 C         6.359731   -6.892365   1.091684 C.3        1 UNL1     0.0012
     24 C         6.760082   -6.633007   -0.369209 C.3        1 UNL1     -0.0339
     25 C         8.262747   -6.871205   -0.591281 C.3        1 UNL1     -0.0615
     26 C         5.915397   -7.485696   -1.299912 C.3        1 UNL1     -0.0615
     27 C         8.353584   0.294277   7.387161 C.ar        1 UNL1     0.1347
     28 C         7.653295   1.486502   7.339758 C.ar        1 UNL1     0.0342
     29 C         6.472261   1.440755   6.568896 C.ar        1 UNL1     0.1435
     30 C         6.067951   0.302148   5.870807 C.ar        1 UNL1     0.0774
     31 O         5.739766   2.551534   6.33517 O.3        1 UNL1     -0.4436
     32 C         4.946647   2.22722   5.183364 C.3        1 UNL1     0.3143
     33 C         4.870742   0.713874   5.168 C.2        1 UNL1     0.2504
     34 C         8.124695   2.808006   7.879672 C.3        1 UNL1     -0.0327
     35 O         3.619941   2.708993   5.430346 O.2        1 UNL1     -0.4528
     36 C         2.178899   3.579805   2.02841 C.3        1 UNL1     0.0854
     37 C         2.00175   2.663246   0.757167 C.3        1 UNL1     0.0236
     38 C         0.508854   2.595682   0.175409 C.3        1 UNL1     0.1131
     39 C         -0.697653   2.26961   1.145094 C.3        1 UNL1     0.0200
     40 C         -0.562885   1.057962   2.283595 C.3        1 UNL1     0.0661
     41 C         -0.024308   -0.52399   1.992095 C.3        1 UNL1     0.0091
     42 C         0.898221   -1.684991   3.072104 C.3        1 UNL1     0.0661
     43 C         8.841515   -2.047995   6.650049 C.2        1 UNL1     0.2131
     44 O         10.018931   -2.041273   6.960508 O.2        1 UNL1     -0.2851
     45 O         9.486927   0.203425   8.19259 O.3        1 UNL1     -0.5056
     46 O         4.005649   0.007497   4.70056 O.2        1 UNL1     -0.2836
     47 C         0.230541   -2.293135   5.582518 C.3        1 UNL1     -0.0566
     48 O         0.004778   -2.834929   2.791896 O.3        1 UNL1     -0.3909
     49 C         0.631125   -0.573137   0.629933 C.3        1 UNL1     -0.0577
     50 O         0.012966   1.552415   3.475919 O.3        1 UNL1     -0.3910
     51 O         0.990269   4.081551   2.596601 O.3        1 UNL1     -0.3753
     52 C         2.930057   1.406203   0.812279 C.3        1 UNL1     -0.0564
     53 O         0.428858   2.019   -1.207835 O.3        1 UNL1     -0.4608
     54 C         -0.571142   1.206082   -1.67377 C.2        1 UNL1     0.3042
     55 O         -0.531373   -0.014081   -1.826937 O.2        1 UNL1     -0.2512
     56 C         -1.853351   1.9342   -1.960994 C.3        1 UNL1     0.0332
     57 C         -1.332515   3.662031   1.610161 C.3        1 UNL1     -0.0567
     58 C         5.752417   2.698848   3.95055 C.3        1 UNL1     0.0210
     59 C         0.769233   5.475948   2.390044 C.3        1 UNL1     0.0372
     60 C         2.961642   2.971136   3.138362 C.2        1 UNL1     -0.0208
     61 C         2.727104   2.949617   4.451097 C.2        1 UNL1     0.0882
     62 H         2.015599   -1.338887   4.884452 H        1 UNL1     0.0365
     63 H         3.458643   -2.243067   6.011534 H        1 UNL1     0.0576
     64 H         3.16442   -5.309932   5.944094 H        1 UNL1     0.0615
     65 H         5.287383   -3.404578   7.217088 H        1 UNL1     0.0622
     66 H         2.773615   4.432992   1.672839 H        1 UNL1     0.0645
     67 H         2.525057   3.21275   -0.044553 H        1 UNL1     0.0362
     68 H         0.375541   3.6498   -0.111968 H        1 UNL1     0.0741
     69 H         -1.542597   1.945193   0.552447 H        1 UNL1     0.0359
     70 H         -1.631206   0.910718   2.53273 H        1 UNL1     0.0600
     71 H         -0.991657   -1.022539   1.785598 H        1 UNL1     0.0348
     72 H         0.455763   -0.933843   3.74242 H        1 UNL1     0.0602
     73 H         3.886836   2.61459   2.758705 H        1 UNL1     0.0628
     74 H         1.7839   3.241931   4.913868 H        1 UNL1     0.1022
     75 H         5.855607   -7.381048   8.066243 H        1 UNL1     0.0279
     76 H         6.437711   -7.371648   6.449343 H        1 UNL1     0.0279
     77 H         7.50189   -6.951401   7.851561 H        1 UNL1     0.0279
     78 H         8.238931   -5.200745   5.954195 H        1 UNL1     0.1553
     79 H         6.832643   -5.101291   4.561826 H        1 UNL1     0.1484
     80 H         5.967173   -2.961069   1.543565 H        1 UNL1     0.0317
     81 H         7.408216   -2.696191   2.514729 H        1 UNL1     0.0317
     82 H         7.778766   -5.166818   2.743638 H        1 UNL1     0.0428
     83 H         7.717017   -4.643867   1.074982 H        1 UNL1     0.0428
     84 H         4.18056   -6.410068   2.648878 H        1 UNL1     0.0428
     85 H         5.535025   -6.317345   3.719369 H        1 UNL1     0.0428
     86 H         3.773153   -4.56881   3.970937 H        1 UNL1     0.0317
     87 H         3.984669   -3.986175   2.384069 H        1 UNL1     0.0317
     88 H         7.227147   -7.304185   1.623933 H        1 UNL1     0.0429
     89 H         5.558418   -7.639721   1.155964 H        1 UNL1     0.0429
     90 H         6.529962   -5.592011   -0.625308 H        1 UNL1     0.0308
     91 H         8.589501   -7.807727   -0.129481 H        1 UNL1     0.0233
     92 H         8.496258   -6.896868   -1.65825 H        1 UNL1     0.0233
     93 H         8.880055   -6.072629   -0.162279 H        1 UNL1     0.0233
     94 H         6.423491   -7.61154   -2.262117 H        1 UNL1     0.0233
     95 H         5.766226   -8.478004   -0.865131 H        1 UNL1     0.0233
     96 H         4.938276   -7.029629   -1.482137 H        1 UNL1     0.0233
     97 H         8.056776   3.598627   7.138365 H        1 UNL1     0.0280
     98 H         7.522783   3.144486   8.73392 H        1 UNL1     0.0280
     99 H         9.176486   2.722475   8.198287 H        1 UNL1     0.0280
     100 H         10.103148   0.906047   8.082059 H        1 UNL1     0.2922
     101 H         -0.584072   -1.853642   5.007273 H        1 UNL1     0.0236
     102 H         0.359217   -1.805048   6.548021 H        1 UNL1     0.0236
     103 H         -0.116444   -3.311156   5.826299 H        1 UNL1     0.0236
     104 H         -0.619806   -2.559618   2.092561 H        1 UNL1     0.2098
     105 H         1.624941   -0.134019   0.593629 H        1 UNL1     0.0234
     106 H         0.635749   -1.557518   0.162065 H        1 UNL1     0.0234
     107 H         0.0   0.0   -0.0 H        1 UNL1     0.0234
     108 H         0.359517   0.785023   3.970671 H        1 UNL1     0.2098
     109 H         3.986507   1.661838   0.650177 H        1 UNL1     0.0234
     110 H         2.829351   0.837263   1.742821 H        1 UNL1     0.0234
     111 H         2.676043   0.680795   0.027928 H        1 UNL1     0.0234
     112 H         -2.6981   1.380431   -1.540179 H        1 UNL1     0.0342
     113 H         -1.834432   2.95831   -1.591287 H        1 UNL1     0.0342
     114 H         -1.987423   1.976113   -3.050688 H        1 UNL1     0.0342
     115 H         -2.415878   3.58218   1.77489 H        1 UNL1     0.0234
     116 H         -0.890829   4.06879   2.522033 H        1 UNL1     0.0234
     117 H         -1.292202   4.445109   0.833562 H        1 UNL1     0.0234
     118 H         5.282926   3.567042   3.455752 H        1 UNL1     0.0309
     119 H         6.794092   2.94019   4.184789 H        1 UNL1     0.0309
     120 H         5.787014   1.944218   3.157175 H        1 UNL1     0.0309
     121 H         0.137904   5.833654   3.202957 H        1 UNL1     0.0524
     122 H         1.706306   6.056628   2.417301 H        1 UNL1     0.0524
     123 H         0.279595   5.641383   1.434544 H        1 UNL1     0.0524
@<TRIPOS>BOND
     1     1     2    1
     2     1    42    1
     3     2     3    2
     4     3     4    1
     5     4     5    2
     6     5     7    1
     7     6    75    1
     8     6    76    1
     9     6    77    1
    10     7     9   am
    11     9    10    1
    12    10    11    2
    13    10    43    1
    14    11    14    1
    15    11    15    1
    16    12    13   ar
    17    12    27   ar
    18    12    43    1
    19    13    14    1
    20    13    30   ar
    21    14    17    2
    22    15    16    1
    23    16    17    1
    24    16    18    1
    25    16    22    1
    26    18    19    1
    27    19    20    1
    28    20    21    1
    29    21    22    1
    30    23    24    1
    31    23    88    1
    32    23    89    1
    33    24    25    1
    34    24    26    1
    35    24    90    1
    36    25    91    1
    37    25    92    1
    38    25    93    1
    39    26    94    1
    40    26    95    1
    41    26    96    1
    42    27    28   ar
    43    28    29   ar
    44    29    30   ar
    45    29    31    1
    46    30    33    1
    47    31    32    1
    48    32    33    1
    49    32    35    1
    50    34    97    1
    51    34    98    1
    52    34    99    1
    53    35    61    1
    54    36    37    1
    55    36    60    1
    56    37    38    1
    57    38    39    1
    58    39    40    1
    59    40    41    1
    60    41    42    1
    61    45   100    1
    62    47   101    1
    63    47   102    1
    64    47   103    1
    65    48   104    1
    66    49   105    1
    67    49   106    1
    68    49   107    1
    69    50   108    1
    70    51    59    1
    71    52   109    1
    72    52   110    1
    73    52   111    1
    74    53    54    1
    75    54    55    2
    76    54    56    1
    77    56   112    1
    78    56   113    1
    79    56   114    1
    80    57   115    1
    81    57   116    1
    82    57   117    1
    83    58   118    1
    84    58   119    1
    85    58   120    1
    86    59   121    1
    87    59   122    1
    88    59   123    1
    89    60    61    2
    90     1    47    1
    91     1    62    1
    92     2    63    1
    93     3    64    1
    94     4    65    1
    95     5     6    1
    96     7     8    2
    97     9    78    1
    98    15    79    1
    99    18    80    1
   100    18    81    1
   101    19    82    1
   102    19    83    1
   103    20    23    1
   104    21    84    1
   105    21    85    1
   106    22    86    1
   107    22    87    1
   108    27    45    1
   109    28    34    1
   110    32    58    1
   111    33    46    2
   112    36    51    1
   113    36    66    1
   114    37    52    1
   115    37    67    1
   116    38    53    1
   117    38    68    1
   118    42    48    1
   119    42    72    1
   120    43    44    2
   121    60    73    1
   122    61    74    1
   123    39    69    1
   124    39    57    1
   125    40    70    1
   126    40    50    1
   127    41    71    1
   128    41    49    1
