@<TRIPOS>MOLECULE
*****
 123 128 0 0 0
SMALL
GASTEIGER

@<TRIPOS>ATOM
     1 C         5.141652   1.83257   0.461054 C.3        1 UNL1     0.0009
     2 C         6.55122   2.681997   -0.392543 C.2        1 UNL1     -0.0787
     3 C         7.827865   2.621452   -1.072659 C.2        1 UNL1     -0.0649
     4 C         8.66992   3.88605   -1.819714 C.2        1 UNL1     -0.0542
     5 C         9.673318   4.214183   -2.764489 C.2        1 UNL1     0.0115
     6 C         10.805822   3.625925   -3.650327 C.3        1 UNL1     -0.0348
     7 C         9.729608   5.707445   -3.350996 C.2        1 UNL1     0.2441
     8 O         10.539148   6.541826   -2.970237 O.2        1 UNL1     -0.2702
     9 N         8.962725   5.91394   -4.510911 N.am        1 UNL1     -0.2772
     10 C         7.675189   6.267738   -4.178644 C.2        1 UNL1     0.1049
     11 C         6.854102   5.273883   -3.891782 C.2        1 UNL1     0.0801
     12 C         6.356697   7.825551   -2.732225 C.ar        1 UNL1     0.0753
     13 C         5.627393   6.675014   -2.29292 C.ar        1 UNL1     0.0305
     14 C         5.766217   5.381286   -2.957786 C.2        1 UNL1     0.0924
     15 N         7.004247   3.950277   -4.070809 N.pl3        1 UNL1     -0.3170
     16 C         5.751257   3.31884   -3.752131 C.3        1 UNL1     0.1275
     17 N         5.104353   4.246085   -2.752404 N.2        1 UNL1     -0.2557
     18 C         4.884052   3.376504   -5.006058 C.3        1 UNL1     0.0016
     19 C         5.64187   2.724991   -6.151847 C.3        1 UNL1     0.0026
     20 N         5.946314   1.347999   -5.788209 N.3        1 UNL1     -0.3018
     21 C         6.726027   1.187401   -4.559135 C.3        1 UNL1     0.0026
     22 C         5.94413   1.844916   -3.420624 C.3        1 UNL1     0.0016
     23 C         6.39703   0.553951   -6.913815 C.3        1 UNL1     0.0012
     24 C         5.237072   0.292573   -7.887435 C.3        1 UNL1     -0.0339
     25 C         5.279105   1.257085   -9.0841 C.3        1 UNL1     -0.0615
     26 C         5.251903   -1.157871   -8.337737 C.3        1 UNL1     -0.0615
     27 C         6.129892   9.080808   -2.172753 C.ar        1 UNL1     0.1347
     28 C         5.175302   9.315733   -1.199296 C.ar        1 UNL1     0.0342
     29 C         4.503757   8.159758   -0.747727 C.ar        1 UNL1     0.1435
     30 C         4.746015   6.890026   -1.273382 C.ar        1 UNL1     0.0774
     31 O         3.469569   8.238416   0.117879 O.3        1 UNL1     -0.4436
     32 C         2.77373   6.992003   -0.03423 C.3        1 UNL1     0.3143
     33 C         3.802967   6.029043   -0.590641 C.2        1 UNL1     0.2504
     34 C         4.703186   10.665374   -0.73489 C.3        1 UNL1     -0.0327
     35 O         2.436679   6.529244   1.279353 O.2        1 UNL1     -0.4528
     36 C         -0.767076   4.531392   0.888667 C.3        1 UNL1     0.0854
     37 C         -1.054016   3.276899   -0.023162 C.3        1 UNL1     0.0236
     38 C         -1.618345   1.992079   0.753056 C.3        1 UNL1     0.1131
     39 C         -0.867405   1.459385   2.039367 C.3        1 UNL1     0.0200
     40 C         0.796928   1.350106   2.061483 C.3        1 UNL1     0.0661
     41 C         1.760606   0.618959   0.872213 C.3        1 UNL1     0.0091
     42 C         3.453763   1.027012   0.295921 C.3        1 UNL1     0.0661
     43 C         7.299209   7.654471   -3.865654 C.2        1 UNL1     0.2131
     44 O         7.671642   8.571042   -4.575534 O.2        1 UNL1     -0.2851
     45 O         6.914313   10.139894   -2.624924 O.3        1 UNL1     -0.5056
     46 O         3.846807   4.824464   -0.476977 O.2        1 UNL1     -0.2836
     47 C         5.562506   1.392117   1.888942 C.3        1 UNL1     -0.0566
     48 O         3.934098   -0.374811   0.353255 O.3        1 UNL1     -0.3909
     49 C         0.91871   0.385133   -0.362303 C.3        1 UNL1     -0.0577
     50 O         1.374298   2.575409   2.465215 O.3        1 UNL1     -0.3910
     51 O         -0.872284   4.319784   2.278482 O.3        1 UNL1     -0.3753
     52 C         -0.018493   3.155555   -1.18846 C.3        1 UNL1     -0.0564
     53 O         -2.207401   0.952555   -0.15509 O.3        1 UNL1     -0.4608
     54 C         -2.409413   -0.363641   0.16856 C.2        1 UNL1     0.3042
     55 O         -1.822094   -1.343663   -0.288005 O.2        1 UNL1     -0.2512
     56 C         -3.435698   -0.567205   1.246528 C.3        1 UNL1     0.0332
     57 C         -1.589636   2.094737   3.317211 C.3        1 UNL1     -0.0567
     58 C         1.682031   7.2282   -1.103779 C.3        1 UNL1     0.0210
     59 C         -1.203519   5.481215   3.038236 C.3        1 UNL1     0.0372
     60 C         0.545254   5.192879   0.653326 C.2        1 UNL1     -0.0208
     61 C         1.457513   5.636153   1.519373 C.2        1 UNL1     0.0882
     62 H         4.645145   2.804663   0.567019 H        1 UNL1     0.0365
     63 H         6.262982   3.728086   -0.269712 H        1 UNL1     0.0576
     64 H         8.30432   1.668122   -1.311953 H        1 UNL1     0.0615
     65 H         8.166505   4.785553   -1.455091 H        1 UNL1     0.0622
     66 H         -1.531198   5.265468   0.596612 H        1 UNL1     0.0645
     67 H         -1.932559   3.575448   -0.62115 H        1 UNL1     0.0362
     68 H         -2.571033   2.402973   1.120581 H        1 UNL1     0.0741
     69 H         -1.174528   0.438589   2.22392 H        1 UNL1     0.0359
     70 H         0.932491   0.680289   2.932131 H        1 UNL1     0.0600
     71 H         1.831141   -0.406797   1.284289 H        1 UNL1     0.0348
     72 H         3.347509   1.49916   1.283394 H        1 UNL1     0.0602
     73 H         0.647841   5.407004   -0.381505 H        1 UNL1     0.0628
     74 H         1.455893   5.410379   2.586267 H        1 UNL1     0.1022
     75 H         10.857455   2.516391   -3.534986 H        1 UNL1     0.0279
     76 H         10.691954   3.744629   -4.725507 H        1 UNL1     0.0279
     77 H         11.808802   3.925861   -3.313026 H        1 UNL1     0.0279
     78 H         8.914341   5.050171   -5.047231 H        1 UNL1     0.1553
     79 H         7.672219   3.545698   -4.700937 H        1 UNL1     0.1484
     80 H         3.935903   2.86177   -4.809006 H        1 UNL1     0.0317
     81 H         4.631848   4.411633   -5.260128 H        1 UNL1     0.0317
     82 H         6.557953   3.280146   -6.401862 H        1 UNL1     0.0428
     83 H         5.006282   2.778603   -7.03627 H        1 UNL1     0.0428
     84 H         6.872514   0.143194   -4.265902 H        1 UNL1     0.0428
     85 H         7.746623   1.57955   -4.668317 H        1 UNL1     0.0428
     86 H         6.475488   1.593519   -2.521488 H        1 UNL1     0.0317
     87 H         4.976802   1.344028   -3.292233 H        1 UNL1     0.0317
     88 H         7.175375   1.120477   -7.441566 H        1 UNL1     0.0429
     89 H         6.854002   -0.386772   -6.580664 H        1 UNL1     0.0429
     90 H         4.286411   0.432546   -7.359359 H        1 UNL1     0.0308
     91 H         6.230513   1.185253   -9.619604 H        1 UNL1     0.0233
     92 H         4.460781   1.048548   -9.777258 H        1 UNL1     0.0233
     93 H         5.163241   2.304572   -8.780485 H        1 UNL1     0.0233
     94 H         4.554281   -1.302185   -9.169802 H        1 UNL1     0.0233
     95 H         6.252203   -1.431003   -8.685245 H        1 UNL1     0.0233
     96 H         4.964511   -1.830946   -7.525121 H        1 UNL1     0.0233
     97 H         3.912619   10.58791   0.005538 H        1 UNL1     0.0280
     98 H         5.505846   11.243089   -0.258195 H        1 UNL1     0.0280
     99 H         4.316737   11.237058   -1.594501 H        1 UNL1     0.0280
     100 H         6.427519   10.884875   -2.930962 H        1 UNL1     0.2922
     101 H         4.711472   0.943823   2.40122 H        1 UNL1     0.0236
     102 H         6.012671   2.19609   2.470287 H        1 UNL1     0.0236
     103 H         6.327189   0.597732   1.868768 H        1 UNL1     0.0236
     104 H         4.360178   -0.505265   1.222973 H        1 UNL1     0.2098
     105 H         0.700482   1.283727   -0.933895 H        1 UNL1     0.0234
     106 H         1.28532   -0.401934   -1.021129 H        1 UNL1     0.0234
     107 H         0.0   -0.0   0.0 H        1 UNL1     0.0234
     108 H         1.169042   3.234412   1.774307 H        1 UNL1     0.2098
     109 H         1.013717   3.071982   -0.820669 H        1 UNL1     0.0234
     110 H         -0.232937   2.325417   -1.870097 H        1 UNL1     0.0234
     111 H         -0.032364   4.042235   -1.836188 H        1 UNL1     0.0234
     112 H         -3.533149   -1.633728   1.470978 H        1 UNL1     0.0342
     113 H         -3.203627   0.001663   2.145625 H        1 UNL1     0.0342
     114 H         -4.404689   -0.21257   0.869097 H        1 UNL1     0.0342
     115 H         -2.655904   1.83254   3.35611 H        1 UNL1     0.0234
     116 H         -1.144481   1.801781   4.270134 H        1 UNL1     0.0234
     117 H         -1.642029   3.196768   3.290285 H        1 UNL1     0.0234
     118 H         0.774277   7.687863   -0.675179 H        1 UNL1     0.0309
     119 H         2.028976   7.837132   -1.944631 H        1 UNL1     0.0309
     120 H         1.310687   6.2939   -1.538858 H        1 UNL1     0.0309
     121 H         -0.381995   6.189313   2.933106 H        1 UNL1     0.0524
     122 H         -2.117423   5.975888   2.669298 H        1 UNL1     0.0524
     123 H         -1.341583   5.219779   4.083551 H        1 UNL1     0.0524
@<TRIPOS>BOND
     1     1     2    1
     2     1    42    1
     3     2     3    2
     4     3     4    1
     5     4     5    2
     6     5     7    1
     7     6    75    1
     8     6    76    1
     9     6    77    1
    10     7     9   am
    11     9    10    1
    12    10    11    2
    13    10    43    1
    14    11    14    1
    15    11    15    1
    16    12    13   ar
    17    12    27   ar
    18    12    43    1
    19    13    14    1
    20    13    30   ar
    21    14    17    2
    22    15    16    1
    23    16    17    1
    24    16    18    1
    25    16    22    1
    26    18    19    1
    27    19    20    1
    28    20    21    1
    29    21    22    1
    30    23    24    1
    31    23    88    1
    32    23    89    1
    33    24    25    1
    34    24    26    1
    35    24    90    1
    36    25    91    1
    37    25    92    1
    38    25    93    1
    39    26    94    1
    40    26    95    1
    41    26    96    1
    42    27    28   ar
    43    28    29   ar
    44    29    30   ar
    45    29    31    1
    46    30    33    1
    47    31    32    1
    48    32    33    1
    49    32    35    1
    50    34    97    1
    51    34    98    1
    52    34    99    1
    53    35    61    1
    54    36    37    1
    55    36    60    1
    56    37    38    1
    57    38    39    1
    58    39    40    1
    59    40    41    1
    60    41    42    1
    61    45   100    1
    62    47   101    1
    63    47   102    1
    64    47   103    1
    65    48   104    1
    66    49   105    1
    67    49   106    1
    68    49   107    1
    69    50   108    1
    70    51    59    1
    71    52   109    1
    72    52   110    1
    73    52   111    1
    74    53    54    1
    75    54    55    2
    76    54    56    1
    77    56   112    1
    78    56   113    1
    79    56   114    1
    80    57   115    1
    81    57   116    1
    82    57   117    1
    83    58   118    1
    84    58   119    1
    85    58   120    1
    86    59   121    1
    87    59   122    1
    88    59   123    1
    89    60    61    2
    90     1    47    1
    91     1    62    1
    92     2    63    1
    93     3    64    1
    94     4    65    1
    95     5     6    1
    96     7     8    2
    97     9    78    1
    98    15    79    1
    99    18    80    1
   100    18    81    1
   101    19    82    1
   102    19    83    1
   103    20    23    1
   104    21    84    1
   105    21    85    1
   106    22    86    1
   107    22    87    1
   108    27    45    1
   109    28    34    1
   110    32    58    1
   111    33    46    2
   112    36    51    1
   113    36    66    1
   114    37    52    1
   115    37    67    1
   116    38    53    1
   117    38    68    1
   118    42    48    1
   119    42    72    1
   120    43    44    2
   121    60    73    1
   122    61    74    1
   123    39    69    1
   124    39    57    1
   125    40    70    1
   126    40    50    1
   127    41    71    1
   128    41    49    1
