@<TRIPOS>MOLECULE
*****
 123 128 0 0 0
SMALL
GASTEIGER

@<TRIPOS>ATOM
     1 C         5.16823   1.747121   0.486044 C.3        1 UNL1     0.0009
     2 C         6.604479   2.552316   -0.365945 C.2        1 UNL1     -0.0787
     3 C         7.885747   2.453357   -1.032732 C.2        1 UNL1     -0.0649
     4 C         8.762996   3.687816   -1.789636 C.2        1 UNL1     -0.0542
     5 C         9.782319   3.979661   -2.729256 C.2        1 UNL1     0.0115
     6 C         10.909541   3.353409   -3.595571 C.3        1 UNL1     -0.0348
     7 C         9.877678   5.462606   -3.336519 C.2        1 UNL1     0.2441
     8 O         10.702188   6.284123   -2.959929 O.2        1 UNL1     -0.2702
     9 N         9.126523   5.669315   -4.506642 N.am        1 UNL1     -0.2772
     10 C         7.844221   6.056609   -4.191958 C.2        1 UNL1     0.1049
     11 C         6.998331   5.085639   -3.898852 C.2        1 UNL1     0.0801
     12 C         6.547634   7.664379   -2.780832 C.ar        1 UNL1     0.0753
     13 C         5.788549   6.536945   -2.332175 C.ar        1 UNL1     0.0305
     14 C         5.904446   5.230908   -2.977067 C.2        1 UNL1     0.0924
     15 N         7.120327   3.756544   -4.057441 N.pl3        1 UNL1     -0.3170
     16 C         5.85052   3.157983   -3.741898 C.3        1 UNL1     0.1275
     17 N         5.215315   4.113897   -2.761863 N.2        1 UNL1     -0.2557
     18 C         4.996604   3.216791   -5.004859 C.3        1 UNL1     0.0016
     19 C         5.750261   2.531908   -6.133808 C.3        1 UNL1     0.0026
     20 N         6.020231   1.153883   -5.747554 N.3        1 UNL1     -0.3018
     21 C         6.784597   0.993774   -4.508814 C.3        1 UNL1     0.0026
     22 C         6.007072   1.68509   -3.387461 C.3        1 UNL1     0.0016
     23 C         6.46348   0.333677   -6.857254 C.3        1 UNL1     0.0012
     24 C         5.307097   0.084177   -7.838215 C.3        1 UNL1     -0.0339
     25 C         5.382016   1.03001   -9.04811 C.3        1 UNL1     -0.0615
     26 C         5.293503   -1.372629   -8.267531 C.3        1 UNL1     -0.0615
     27 C         6.343904   8.932394   -2.24162 C.ar        1 UNL1     0.1347
     28 C         5.385773   9.202732   -1.280915 C.ar        1 UNL1     0.0342
     29 C         4.684194   8.06875   -0.819358 C.ar        1 UNL1     0.1435
     30 C         4.90273   6.786411   -1.324402 C.ar        1 UNL1     0.0774
     31 O         3.643982   8.183089   0.03498 O.3        1 UNL1     -0.4436
     32 C         2.92173   6.950469   -0.105991 C.3        1 UNL1     0.3143
     33 C         3.934202   5.956748   -0.638561 C.2        1 UNL1     0.2504
     34 C         4.939817   10.569202   -0.84048 C.3        1 UNL1     -0.0327
     35 O         2.562074   6.514507   1.210762 O.2        1 UNL1     -0.4528
     36 C         -0.682023   4.583329   0.817732 C.3        1 UNL1     0.0854
     37 C         -0.98857   3.322443   -0.078771 C.3        1 UNL1     0.0236
     38 C         -1.588903   2.061983   0.710271 C.3        1 UNL1     0.1131
     39 C         -0.862209   1.531385   2.01129 C.3        1 UNL1     0.0200
     40 C         0.798965   1.385249   2.051081 C.3        1 UNL1     0.0661
     41 C         1.757035   0.615525   0.881791 C.3        1 UNL1     0.0091
     42 C         3.464264   0.977193   0.316133 C.3        1 UNL1     0.0661
     43 C         7.496624   7.455807   -3.902517 C.2        1 UNL1     0.2131
     44 O         7.896211   8.353404   -4.621813 O.2        1 UNL1     -0.2851
     45 O         7.156151   9.966989   -2.701299 O.3        1 UNL1     -0.5056
     46 O         3.949863   4.753269   -0.507236 O.2        1 UNL1     -0.2836
     47 C         5.565688   1.318169   1.924102 C.3        1 UNL1     -0.0566
     48 O         3.91238   -0.434039   0.398188 O.3        1 UNL1     -0.3909
     49 C         0.921681   0.382662   -0.357342 C.3        1 UNL1     -0.0577
     50 O         1.399954   2.603074   2.442792 O.3        1 UNL1     -0.3910
     51 O         -0.804967   4.394352   2.209352 O.3        1 UNL1     -0.3753
     52 C         0.054819   3.161046   -1.23213 C.3        1 UNL1     -0.0564
     53 O         -2.192674   1.0228   -0.188553 O.3        1 UNL1     -0.4608
     54 C         -2.427269   -0.283706   0.151945 C.2        1 UNL1     0.3042
     55 O         -1.857901   -1.28315   -0.284829 O.2        1 UNL1     -0.2512
     56 C         -3.467916   -0.448578   1.222732 C.3        1 UNL1     0.0332
     57 C         -1.581887   2.201238   3.27285 C.3        1 UNL1     -0.0567
     58 C         1.845678   7.195446   -1.189332 C.3        1 UNL1     0.0210
     59 C         -1.117082   5.573821   2.94915 C.3        1 UNL1     0.0372
     60 C         0.647003   5.211813   0.585657 C.2        1 UNL1     -0.0208
     61 C         1.560859   5.647118   1.454058 C.2        1 UNL1     0.0882
     62 H         4.69275   2.73151   0.573263 H        1 UNL1     0.0365
     63 H         6.338714   3.606264   -0.260906 H        1 UNL1     0.0576
     64 H         8.34285   1.486234   -1.253722 H        1 UNL1     0.0615
     65 H         8.276556   4.603557   -1.442825 H        1 UNL1     0.0622
     66 H         -1.426669   5.329985   0.507809 H        1 UNL1     0.0645
     67 H         -1.85454   3.631839   -0.689451 H        1 UNL1     0.0362
     68 H         -2.535503   2.499377   1.062632 H        1 UNL1     0.0741
     69 H         -1.193934   0.520503   2.207463 H        1 UNL1     0.0359
     70 H         0.91127   0.725296   2.932506 H        1 UNL1     0.0600
     71 H         1.800614   -0.405454   1.309181 H        1 UNL1     0.0348
     72 H         3.359424   1.465903   1.295667 H        1 UNL1     0.0602
     73 H         0.76406   5.408524   -0.451093 H        1 UNL1     0.0628
     74 H         1.544176   5.436971   2.52401 H        1 UNL1     0.1022
     75 H         10.935115   2.244793   -3.463855 H        1 UNL1     0.0279
     76 H         10.808439   3.458988   -4.673393 H        1 UNL1     0.0279
     77 H         11.915815   3.635713   -3.252906 H        1 UNL1     0.0279
     78 H         9.063738   4.799139   -5.030978 H        1 UNL1     0.1553
     79 H         7.784895   3.328011   -4.675213 H        1 UNL1     0.1484
     80 H         4.035312   2.726307   -4.809643 H        1 UNL1     0.0317
     81 H         4.770142   4.253498   -5.276159 H        1 UNL1     0.0317
     82 H         6.680902   3.062745   -6.382868 H        1 UNL1     0.0428
     83 H         5.124344   2.586856   -7.02502 H        1 UNL1     0.0428
     84 H         6.904802   -0.049075   -4.199251 H        1 UNL1     0.0428
     85 H         7.814734   1.361374   -4.613716 H        1 UNL1     0.0428
     86 H         6.524202   1.43497   -2.479714 H        1 UNL1     0.0317
     87 H         5.02756   1.207877   -3.26128 H        1 UNL1     0.0317
     88 H         7.259279   0.874924   -7.385505 H        1 UNL1     0.0429
     89 H         6.896033   -0.612088   -6.506255 H        1 UNL1     0.0429
     90 H         4.354925   0.253035   -7.321427 H        1 UNL1     0.0308
     91 H         6.346131   0.947052   -9.558699 H        1 UNL1     0.0233
     92 H         4.580385   0.813304   -9.758064 H        1 UNL1     0.0233
     93 H         5.262253   2.082396   -8.763547 H        1 UNL1     0.0233
     94 H         4.600627   -1.513387   -9.104159 H        1 UNL1     0.0233
     95 H         6.290612   -1.673084   -8.60139 H        1 UNL1     0.0233
     96 H         4.983449   -2.027225   -7.448178 H        1 UNL1     0.0233
     97 H         4.140813   10.520207   -0.106707 H        1 UNL1     0.0280
     98 H         5.750776   11.135692   -0.36436 H        1 UNL1     0.0280
     99 H         4.57439   11.136828   -1.711892 H        1 UNL1     0.0280
     100 H         6.689128   10.718141   -3.022674 H        1 UNL1     0.2922
     101 H         4.700026   0.896513   2.434485 H        1 UNL1     0.0236
     102 H         6.028367   2.120241   2.498203 H        1 UNL1     0.0236
     103 H         6.312459   0.506674   1.922712 H        1 UNL1     0.0236
     104 H         4.327259   -0.561332   1.273769 H        1 UNL1     0.2098
     105 H         0.70886   1.281293   -0.93091 H        1 UNL1     0.0234
     106 H         1.2902   -0.405815   -1.013411 H        1 UNL1     0.0234
     107 H         0.0   -0.0   0.0 H        1 UNL1     0.0234
     108 H         1.216051   3.256388   1.740561 H        1 UNL1     0.2098
     109 H         1.081401   3.059767   -0.853205 H        1 UNL1     0.0234
     110 H         -0.17186   2.32609   -1.903851 H        1 UNL1     0.0234
     111 H         0.066964   4.038305   -1.892596 H        1 UNL1     0.0234
     112 H         -3.591434   -1.509279   1.46148 H        1 UNL1     0.0342
     113 H         -3.231528   0.127969   2.115793 H        1 UNL1     0.0342
     114 H         -4.425109   -0.077887   0.830896 H        1 UNL1     0.0342
     115 H         -2.651569   1.953374   3.31202 H        1 UNL1     0.0234
     116 H         -1.144684   1.921785   4.233479 H        1 UNL1     0.0234
     117 H         -1.620124   3.303084   3.223719 H        1 UNL1     0.0234
     118 H         0.944524   7.681475   -0.776168 H        1 UNL1     0.0309
     119 H         2.214089   7.784181   -2.035421 H        1 UNL1     0.0309
     120 H         1.457494   6.263458   -1.614559 H        1 UNL1     0.0309
     121 H         -0.278886   6.261768   2.841847 H        1 UNL1     0.0524
     122 H         -2.016132   6.083391   2.564333 H        1 UNL1     0.0524
     123 H         -1.270768   5.330761   3.996717 H        1 UNL1     0.0524
@<TRIPOS>BOND
     1     1     2    1
     2     1    42    1
     3     2     3    2
     4     3     4    1
     5     4     5    2
     6     5     7    1
     7     6    75    1
     8     6    76    1
     9     6    77    1
    10     7     9   am
    11     9    10    1
    12    10    11    2
    13    10    43    1
    14    11    14    1
    15    11    15    1
    16    12    13   ar
    17    12    27   ar
    18    12    43    1
    19    13    14    1
    20    13    30   ar
    21    14    17    2
    22    15    16    1
    23    16    17    1
    24    16    18    1
    25    16    22    1
    26    18    19    1
    27    19    20    1
    28    20    21    1
    29    21    22    1
    30    23    24    1
    31    23    88    1
    32    23    89    1
    33    24    25    1
    34    24    26    1
    35    24    90    1
    36    25    91    1
    37    25    92    1
    38    25    93    1
    39    26    94    1
    40    26    95    1
    41    26    96    1
    42    27    28   ar
    43    28    29   ar
    44    29    30   ar
    45    29    31    1
    46    30    33    1
    47    31    32    1
    48    32    33    1
    49    32    35    1
    50    34    97    1
    51    34    98    1
    52    34    99    1
    53    35    61    1
    54    36    37    1
    55    36    60    1
    56    37    38    1
    57    38    39    1
    58    39    40    1
    59    40    41    1
    60    41    42    1
    61    45   100    1
    62    47   101    1
    63    47   102    1
    64    47   103    1
    65    48   104    1
    66    49   105    1
    67    49   106    1
    68    49   107    1
    69    50   108    1
    70    51    59    1
    71    52   109    1
    72    52   110    1
    73    52   111    1
    74    53    54    1
    75    54    55    2
    76    54    56    1
    77    56   112    1
    78    56   113    1
    79    56   114    1
    80    57   115    1
    81    57   116    1
    82    57   117    1
    83    58   118    1
    84    58   119    1
    85    58   120    1
    86    59   121    1
    87    59   122    1
    88    59   123    1
    89    60    61    2
    90     1    47    1
    91     1    62    1
    92     2    63    1
    93     3    64    1
    94     4    65    1
    95     5     6    1
    96     7     8    2
    97     9    78    1
    98    15    79    1
    99    18    80    1
   100    18    81    1
   101    19    82    1
   102    19    83    1
   103    20    23    1
   104    21    84    1
   105    21    85    1
   106    22    86    1
   107    22    87    1
   108    27    45    1
   109    28    34    1
   110    32    58    1
   111    33    46    2
   112    36    51    1
   113    36    66    1
   114    37    52    1
   115    37    67    1
   116    38    53    1
   117    38    68    1
   118    42    48    1
   119    42    72    1
   120    43    44    2
   121    60    73    1
   122    61    74    1
   123    39    69    1
   124    39    57    1
   125    40    70    1
   126    40    50    1
   127    41    71    1
   128    41    49    1
