@<TRIPOS>MOLECULE
*****
 123 128 0 0 0
SMALL
GASTEIGER

@<TRIPOS>ATOM
     1 C         4.198684   2.857321   2.050865 C.3        1 UNL1     0.0009
     2 C         5.502041   4.131233   1.711093 C.2        1 UNL1     -0.0787
     3 C         6.876095   4.472721   1.408756 C.2        1 UNL1     -0.0649
     4 C         7.515129   6.000165   1.055335 C.2        1 UNL1     -0.0542
     5 C         8.597042   6.697488   0.463488 C.2        1 UNL1     0.0115
     6 C         10.024013   6.534083   -0.128438 C.3        1 UNL1     -0.0348
     7 C         8.403301   8.241404   0.068806 C.2        1 UNL1     0.2441
     8 O         8.849527   9.161072   0.740832 O.2        1 UNL1     -0.2702
     9 N         7.915367   8.46022   -1.231268 N.am        1 UNL1     -0.2772
     10 C         6.539399   8.455662   -1.234854 C.2        1 UNL1     0.1049
     11 C         5.961426   7.269353   -1.288149 C.2        1 UNL1     0.0801
     12 C         4.549574   9.41514   -0.061258 C.ar        1 UNL1     0.0753
     13 C         4.061071   8.073663   0.040788 C.ar        1 UNL1     0.0305
     14 C         4.689716   6.973055   -0.686205 C.2        1 UNL1     0.0924
     15 N         6.490172   6.061878   -1.55075 N.pl3        1 UNL1     -0.3170
     16 C         5.406508   5.121308   -1.656839 C.3        1 UNL1     0.1275
     17 N         4.317164   5.700311   -0.787467 N.2        1 UNL1     -0.2557
     18 C         4.886513   5.190311   -3.08951 C.3        1 UNL1     0.0016
     19 C         6.043187   4.925236   -4.04 C.3        1 UNL1     0.0026
     20 N         6.597904   3.61098   -3.746663 N.3        1 UNL1     -0.3018
     21 C         7.06903   3.427626   -2.37233 C.3        1 UNL1     0.0026
     22 C         5.890068   3.694267   -1.434862 C.3        1 UNL1     0.0016
     23 C         7.49989   3.13674   -4.777276 C.3        1 UNL1     0.0012
     24 C         6.721287   2.7871   -6.055276 C.3        1 UNL1     -0.0339
     25 C         6.800525   3.921484   -7.090143 C.3        1 UNL1     -0.0615
     26 C         7.222696   1.472525   -6.627344 C.3        1 UNL1     -0.0615
     27 C         3.874411   10.476566   0.53678 C.ar        1 UNL1     0.1347
     28 C         2.684399   10.326086   1.226184 C.ar        1 UNL1     0.0342
     29 C         2.24829   8.990318   1.355402 C.ar        1 UNL1     0.1435
     30 C         2.93343   7.912844   0.792505 C.ar        1 UNL1     0.0774
     31 O         1.050884   8.689838   1.903979 O.3        1 UNL1     -0.4436
     32 C         0.762589   7.362076   1.440507 C.3        1 UNL1     0.3143
     33 C         2.110527   6.760964   1.097084 C.2        1 UNL1     0.2504
     34 C         1.778597   11.438859   1.674913 C.3        1 UNL1     -0.0327
     35 O         0.248523   6.623814   2.555835 O.2        1 UNL1     -0.4528
     36 C         -2.128953   4.051092   1.094056 C.3        1 UNL1     0.0854
     37 C         -1.848191   2.933598   0.017068 C.3        1 UNL1     0.0236
     38 C         -2.229586   1.444246   0.47326 C.3        1 UNL1     0.1131
     39 C         -1.702317   0.887633   1.856893 C.3        1 UNL1     0.0200
     40 C         -0.124297   1.152697   2.328096 C.3        1 UNL1     0.0661
     41 C         1.256037   0.8646   1.385076 C.3        1 UNL1     0.0091
     42 C         2.871849   1.732301   1.344464 C.3        1 UNL1     0.0661
     43 C         5.750606   9.650791   -0.900453 C.2        1 UNL1     0.2131
     44 O         6.032525   10.732445   -1.38345 O.2        1 UNL1     -0.2851
     45 O         4.441369   11.744744   0.42851 O.3        1 UNL1     -0.5056
     46 O         2.437694   5.595281   1.096696 O.2        1 UNL1     -0.2836
     47 C         4.359068   2.291647   3.487622 C.3        1 UNL1     -0.0566
     48 O         3.671925   0.484584   1.39133 O.3        1 UNL1     -0.3909
     49 C         0.830917   0.656171   -0.051351 C.3        1 UNL1     -0.0577
     50 O         -0.002433   2.391786   2.997074 O.3        1 UNL1     -0.3910
     51 O         -2.510413   3.593373   2.371715 O.3        1 UNL1     -0.3753
     52 C         -0.565465   3.243183   -0.821813 C.3        1 UNL1     -0.0564
     53 O         -2.287992   0.464725   -0.662281 O.3        1 UNL1     -0.4608
     54 C         -2.198932   -0.897511   -0.542652 C.2        1 UNL1     0.3042
     55 O         -1.28064   -1.622279   -0.923822 O.2        1 UNL1     -0.2512
     56 C         -3.354555   -1.513404   0.193504 C.3        1 UNL1     0.0332
     57 C         -2.853677   1.123241   2.941806 C.3        1 UNL1     -0.0567
     58 C         -0.058545   7.52147   0.13979 C.3        1 UNL1     0.0210
     59 C         -3.307447   4.507985   3.122773 C.3        1 UNL1     0.0372
     60 C         -1.017965   5.019992   1.299242 C.2        1 UNL1     -0.0208
     61 C         -0.49199   5.50655   2.424122 C.2        1 UNL1     0.0882
     62 H         3.455723   3.661647   2.112345 H        1 UNL1     0.0365
     63 H         4.930272   5.050568   1.853828 H        1 UNL1     0.0576
     64 H         7.627887   3.70406   1.216201 H        1 UNL1     0.0615
     65 H         6.721666   6.690266   1.354771 H        1 UNL1     0.0622
     66 H         -2.963031   4.63292   0.677121 H        1 UNL1     0.0645
     67 H         -2.601215   3.122373   -0.767712 H        1 UNL1     0.0362
     68 H         -3.316177   1.563831   0.601869 H        1 UNL1     0.0741
     69 H         -1.768187   -0.192153   1.845505 H        1 UNL1     0.0359
     70 H         -0.035044   0.395319   3.130264 H        1 UNL1     0.0600
     71 H         1.48891   -0.172961   1.695226 H        1 UNL1     0.0348
     72 H         2.409183   1.997739   2.306128 H        1 UNL1     0.0602
     73 H         -0.72602   5.42056   0.360327 H        1 UNL1     0.0628
     74 H         -0.694376   5.112138   3.420474 H        1 UNL1     0.1022
     75 H         10.333286   5.461135   -0.115505 H        1 UNL1     0.0279
     76 H         10.148418   6.801134   -1.17547 H        1 UNL1     0.0279
     77 H         10.800802   6.991225   0.501897 H        1 UNL1     0.0279
     78 H         8.225786   7.709071   -1.844043 H        1 UNL1     0.1553
     79 H         7.373041   5.928062   -2.008536 H        1 UNL1     0.1484
     80 H         4.086849   4.450449   -3.215638 H        1 UNL1     0.0317
     81 H         4.44301   6.169833   -3.298056 H        1 UNL1     0.0317
     82 H         6.815253   5.70551   -3.9693 H        1 UNL1     0.0428
     83 H         5.650694   4.980958   -5.055822 H        1 UNL1     0.0428
     84 H         7.406597   2.409145   -2.15656 H        1 UNL1     0.0428
     85 H         7.946931   4.051447   -2.154494 H        1 UNL1     0.0428
     86 H         6.233137   3.422785   -0.453746 H        1 UNL1     0.0317
     87 H         5.08559   2.974802   -1.630522 H        1 UNL1     0.0317
     88 H         8.207916   3.943154   -5.008989 H        1 UNL1     0.0429
     89 H         8.090851   2.280701   -4.426941 H        1 UNL1     0.0429
     90 H         5.668101   2.620326   -5.799933 H        1 UNL1     0.0308
     91 H         7.838461   4.155088   -7.345524 H        1 UNL1     0.0233
     92 H         6.259059   3.652685   -8.000183 H        1 UNL1     0.0233
     93 H         6.345429   4.850826   -6.726762 H        1 UNL1     0.0233
     94 H         6.811076   1.315571   -7.630225 H        1 UNL1     0.0233
     95 H         8.313   1.492582   -6.709781 H        1 UNL1     0.0233
     96 H         6.931773   0.6267   -5.998128 H        1 UNL1     0.0233
     97 H         0.879949   11.063965   2.155658 H        1 UNL1     0.0280
     98 H         2.261923   12.09459   2.410894 H        1 UNL1     0.0280
     99 H         1.477834   12.043848   0.803922 H        1 UNL1     0.0280
     100 H         3.866951   12.40163   0.076136 H        1 UNL1     0.2922
     101 H         3.556089   1.585012   3.696304 H        1 UNL1     0.0236
     102 H         4.428639   3.068105   4.248711 H        1 UNL1     0.0236
     103 H         5.285387   1.703911   3.600285 H        1 UNL1     0.0236
     104 H         3.892283   0.310484   2.327333 H        1 UNL1     0.2098
     105 H         0.509148   1.561277   -0.56033 H        1 UNL1     0.0234
     106 H         1.549722   0.113037   -0.664745 H        1 UNL1     0.0234
     107 H         0.0   0.0   0.0 H        1 UNL1     0.0234
     108 H         -0.197734   3.09327   2.34627 H        1 UNL1     0.2098
     109 H         0.331142   3.333576   -0.192816 H        1 UNL1     0.0234
     110 H         -0.383581   2.511188   -1.61607 H        1 UNL1     0.0234
     111 H         -0.651797   4.199079   -1.355439 H        1 UNL1     0.0234
     112 H         -3.211669   -2.595424   0.271996 H        1 UNL1     0.0342
     113 H         -3.499569   -1.066182   1.17575 H        1 UNL1     0.0342
     114 H         -4.267662   -1.335822   -0.391189 H        1 UNL1     0.0342
     115 H         -3.787326   0.615349   2.663358 H        1 UNL1     0.0234
     116 H         -2.588809   0.794634   3.948738 H        1 UNL1     0.0234
     117 H         -3.191846   2.17193   3.003726 H        1 UNL1     0.0234
     118 H         -1.130731   7.687826   0.344114 H        1 UNL1     0.0309
     119 H         0.311604   8.323767   -0.506361 H        1 UNL1     0.0309
     120 H         -0.056122   6.613268   -0.472802 H        1 UNL1     0.0309
     121 H         -2.698843   5.389813   3.321109 H        1 UNL1     0.0524
     122 H         -4.200365   4.839083   2.566798 H        1 UNL1     0.0524
     123 H         -3.622761   4.052282   4.057121 H        1 UNL1     0.0524
@<TRIPOS>BOND
     1     1     2    1
     2     1    42    1
     3     2     3    2
     4     3     4    1
     5     4     5    2
     6     5     7    1
     7     6    75    1
     8     6    76    1
     9     6    77    1
    10     7     9   am
    11     9    10    1
    12    10    11    2
    13    10    43    1
    14    11    14    1
    15    11    15    1
    16    12    13   ar
    17    12    27   ar
    18    12    43    1
    19    13    14    1
    20    13    30   ar
    21    14    17    2
    22    15    16    1
    23    16    17    1
    24    16    18    1
    25    16    22    1
    26    18    19    1
    27    19    20    1
    28    20    21    1
    29    21    22    1
    30    23    24    1
    31    23    88    1
    32    23    89    1
    33    24    25    1
    34    24    26    1
    35    24    90    1
    36    25    91    1
    37    25    92    1
    38    25    93    1
    39    26    94    1
    40    26    95    1
    41    26    96    1
    42    27    28   ar
    43    28    29   ar
    44    29    30   ar
    45    29    31    1
    46    30    33    1
    47    31    32    1
    48    32    33    1
    49    32    35    1
    50    34    97    1
    51    34    98    1
    52    34    99    1
    53    35    61    1
    54    36    37    1
    55    36    60    1
    56    37    38    1
    57    38    39    1
    58    39    40    1
    59    40    41    1
    60    41    42    1
    61    45   100    1
    62    47   101    1
    63    47   102    1
    64    47   103    1
    65    48   104    1
    66    49   105    1
    67    49   106    1
    68    49   107    1
    69    50   108    1
    70    51    59    1
    71    52   109    1
    72    52   110    1
    73    52   111    1
    74    53    54    1
    75    54    55    2
    76    54    56    1
    77    56   112    1
    78    56   113    1
    79    56   114    1
    80    57   115    1
    81    57   116    1
    82    57   117    1
    83    58   118    1
    84    58   119    1
    85    58   120    1
    86    59   121    1
    87    59   122    1
    88    59   123    1
    89    60    61    2
    90     1    47    1
    91     1    62    1
    92     2    63    1
    93     3    64    1
    94     4    65    1
    95     5     6    1
    96     7     8    2
    97     9    78    1
    98    15    79    1
    99    18    80    1
   100    18    81    1
   101    19    82    1
   102    19    83    1
   103    20    23    1
   104    21    84    1
   105    21    85    1
   106    22    86    1
   107    22    87    1
   108    27    45    1
   109    28    34    1
   110    32    58    1
   111    33    46    2
   112    36    51    1
   113    36    66    1
   114    37    52    1
   115    37    67    1
   116    38    53    1
   117    38    68    1
   118    42    48    1
   119    42    72    1
   120    43    44    2
   121    60    73    1
   122    61    74    1
   123    39    69    1
   124    39    57    1
   125    40    70    1
   126    40    50    1
   127    41    71    1
   128    41    49    1
