@<TRIPOS>MOLECULE
*****
 123 128 0 0 0
SMALL
GASTEIGER

@<TRIPOS>ATOM
     1 C         -4.702838   -0.056787   2.486124 C.3        1 UNL1     0.0009
     2 C         -6.515131   0.300784   2.328718 C.2        1 UNL1     -0.0787
     3 C         -7.627611   1.221252   2.434418 C.2        1 UNL1     -0.0649
     4 C         -9.239647   0.960983   1.987251 C.2        1 UNL1     -0.0542
     5 C         -10.466675   1.584666   1.651841 C.2        1 UNL1     0.0115
     6 C         -11.218146   2.94395   1.620823 C.3        1 UNL1     -0.0348
     7 C         -11.588729   0.729743   0.885624 C.2        1 UNL1     0.2441
     8 O         -12.570664   0.264965   1.44804 O.2        1 UNL1     -0.2702
     9 N         -11.505313   0.771457   -0.517035 N.am        1 UNL1     -0.2772
     10 C         -10.668574   -0.218853   -0.977986 C.2        1 UNL1     0.1049
     11 C         -9.376707   0.054859   -0.958406 C.2        1 UNL1     0.0801
     12 C         -10.192339   -2.666292   -0.776551 C.ar        1 UNL1     0.0753
     13 C         -8.826706   -2.302156   -0.550587 C.ar        1 UNL1     0.0305
     14 C         -8.353374   -0.936536   -0.76527 C.2        1 UNL1     0.0924
     15 N         -8.744306   1.223657   -0.757136 N.pl3        1 UNL1     -0.3170
     16 C         -7.34319   1.014158   -1.00861 C.3        1 UNL1     0.1275
     17 N         -7.118564   -0.446444   -0.702166 N.2        1 UNL1     -0.2557
     18 C         -7.125097   1.170154   -2.510543 C.3        1 UNL1     0.0016
     19 C         -7.642525   2.534389   -2.938002 C.3        1 UNL1     0.0026
     20 N         -6.924667   3.560803   -2.194913 N.3        1 UNL1     -0.3018
     21 C         -7.023934   3.457329   -0.737584 C.3        1 UNL1     0.0026
     22 C         -6.494636   2.08129   -0.329838 C.3        1 UNL1     0.0016
     23 C         -7.12387   4.891068   -2.734687 C.3        1 UNL1     0.0012
     24 C         -5.995313   5.249395   -3.714339 C.3        1 UNL1     -0.0339
     25 C         -5.270141   6.537115   -3.290123 C.3        1 UNL1     -0.0615
     26 C         -5.031558   4.083125   -3.847638 C.3        1 UNL1     -0.0615
     27 C         -10.610115   -3.992021   -0.68697 C.ar        1 UNL1     0.1347
     28 C         -9.74966   -5.041592   -0.418515 C.ar        1 UNL1     0.0342
     29 C         -8.4195   -4.653645   -0.151431 C.ar        1 UNL1     0.1435
     30 C         -7.993975   -3.325639   -0.201939 C.ar        1 UNL1     0.0774
     31 O         -7.439397   -5.567723   0.018469 O.3        1 UNL1     -0.4436
     32 C         -6.222452   -4.84137   -0.210289 C.3        1 UNL1     0.3143
     33 C         -6.5707   -3.390936   0.056501 C.2        1 UNL1     0.2504
     34 C         -10.072975   -6.503512   -0.553996 C.3        1 UNL1     -0.0327
     35 O         -5.291412   -5.240126   0.803323 O.2        1 UNL1     -0.4528
     36 C         -1.848491   -4.922502   -0.763041 C.3        1 UNL1     0.0854
     37 C         -1.161308   -3.659305   -1.410833 C.3        1 UNL1     0.0236
     38 C         0.267427   -3.275318   -0.791952 C.3        1 UNL1     0.1131
     39 C         0.431276   -3.131075   0.77477 C.3        1 UNL1     0.0200
     40 C         -0.721307   -2.328202   1.674428 C.3        1 UNL1     0.0661
     41 C         -1.355646   -0.792314   1.333439 C.3        1 UNL1     0.0091
     42 C         -3.025347   -0.098665   1.643848 C.3        1 UNL1     0.0661
     43 C         -11.131584   -1.597197   -1.197401 C.2        1 UNL1     0.2131
     44 O         -12.176636   -1.812083   -1.784281 O.2        1 UNL1     -0.2851
     45 O         -11.965146   -4.255577   -0.876355 O.3        1 UNL1     -0.5056
     46 O         -5.841798   -2.495873   0.421764 O.2        1 UNL1     -0.2836
     47 C         -4.308062   -0.19371   3.981244 C.3        1 UNL1     -0.0566
     48 O         -2.516193   1.165652   2.228127 O.3        1 UNL1     -0.3909
     49 C         -0.974482   -0.409542   -0.079251 C.3        1 UNL1     -0.0577
     50 O         -1.760938   -3.206599   2.055623 O.3        1 UNL1     -0.3910
     51 O         -1.216107   -5.448579   0.381846 O.3        1 UNL1     -0.3753
     52 C         -2.20881   -2.573066   -1.820435 C.3        1 UNL1     -0.0564
     53 O         1.048555   -2.311826   -1.636849 O.3        1 UNL1     -0.4608
     54 C         2.083064   -1.527392   -1.198232 C.2        1 UNL1     0.3042
     55 O         2.936517   -0.965123   -1.883294 O.2        1 UNL1     -0.2512
     56 C         2.092788   -1.321648   0.289817 C.3        1 UNL1     0.0332
     57 C         0.972852   -4.528374   1.333719 C.3        1 UNL1     -0.0567
     58 C         -5.890029   -5.006614   -1.711529 C.3        1 UNL1     0.0210
     59 C         -1.482691   -6.82751   0.633536 C.3        1 UNL1     0.0372
     60 C         -3.285783   -4.748739   -0.417847 C.2        1 UNL1     -0.0208
     61 C         -3.958322   -5.091633   0.681634 C.2        1 UNL1     0.0882
     62 H         -4.890794   -1.072524   2.117799 H        1 UNL1     0.0365
     63 H         -6.895838   -0.688582   2.066636 H        1 UNL1     0.0576
     64 H         -7.477202   2.27544   2.677672 H        1 UNL1     0.0615
     65 H         -9.299219   -0.121517   1.84538 H        1 UNL1     0.0622
     66 H         -1.818321   -5.687806   -1.551359 H        1 UNL1     0.0645
     67 H         -0.8784   -3.997462   -2.422847 H        1 UNL1     0.0362
     68 H         0.834074   -4.179307   -1.062575 H        1 UNL1     0.0741
     69 H         1.32955   -2.56417   0.980027 H        1 UNL1     0.0359
     70 H         -0.149568   -2.155429   2.606266 H        1 UNL1     0.0600
     71 H         -0.662449   -0.161476   1.923759 H        1 UNL1     0.0348
     72 H         -2.928138   -0.966047   2.312813 H        1 UNL1     0.0602
     73 H         -3.8086   -4.390011   -1.269449 H        1 UNL1     0.0628
     74 H         -3.492954   -5.412002   1.61439 H        1 UNL1     0.1022
     75 H         -11.665734   3.121536   0.61327 H        1 UNL1     0.0279
     76 H         -12.07879   3.037621   2.279296 H        1 UNL1     0.0279
     77 H         -10.541469   3.806162   1.712473 H        1 UNL1     0.0279
     78 H         -11.11385   1.664208   -0.810001 H        1 UNL1     0.1553
     79 H         -9.185902   2.119605   -0.853066 H        1 UNL1     0.1484
     80 H         -6.056161   1.060485   -2.729893 H        1 UNL1     0.0317
     81 H         -7.641618   0.379418   -3.065154 H        1 UNL1     0.0317
     82 H         -8.72851   2.623368   -2.78756 H        1 UNL1     0.0428
     83 H         -7.478884   2.623964   -4.012362 H        1 UNL1     0.0428
     84 H         -6.41207   4.190642   -0.203088 H        1 UNL1     0.0428
     85 H         -8.04528   3.652551   -0.38254 H        1 UNL1     0.0428
     86 H         -6.457777   2.091709   0.743718 H        1 UNL1     0.0317
     87 H         -5.44104   1.984321   -0.619025 H        1 UNL1     0.0317
     88 H         -8.076283   4.898999   -3.280711 H        1 UNL1     0.0429
     89 H         -7.205659   5.637954   -1.934534 H        1 UNL1     0.0429
     90 H         -6.42145   5.401464   -4.713086 H        1 UNL1     0.0308
     91 H         -4.188953   6.382064   -3.226146 H        1 UNL1     0.0233
     92 H         -5.475331   7.346143   -3.995091 H        1 UNL1     0.0233
     93 H         -5.598592   6.897044   -2.307572 H        1 UNL1     0.0233
     94 H         -4.010908   4.451723   -3.996791 H        1 UNL1     0.0233
     95 H         -5.042946   3.482677   -2.933693 H        1 UNL1     0.0233
     96 H         -5.294818   3.442652   -4.694076 H        1 UNL1     0.0233
     97 H         -10.647001   -6.873797   0.290169 H        1 UNL1     0.0280
     98 H         -10.679732   -6.712334   -1.444779 H        1 UNL1     0.0280
     99 H         -9.137988   -7.083928   -0.61733 H        1 UNL1     0.0280
     100 H         -12.285088   -4.060257   -1.739553 H        1 UNL1     0.2922
     101 H         -5.155169   -0.57379   4.551862 H        1 UNL1     0.0236
     102 H         -3.909408   0.727244   4.405395 H        1 UNL1     0.0236
     103 H         -3.511031   -0.940766   4.13238 H        1 UNL1     0.0236
     104 H         -2.571349   1.084497   3.200414 H        1 UNL1     0.2098
     105 H         -0.929017   -1.244431   -0.77402 H        1 UNL1     0.0234
     106 H         -1.561457   0.404368   -0.504619 H        1 UNL1     0.0234
     107 H         0.0   0.0   0.0 H        1 UNL1     0.0234
     108 H         -2.133142   -2.869389   2.893192 H        1 UNL1     0.2098
     109 H         -1.743466   -1.594383   -2.003047 H        1 UNL1     0.0234
     110 H         -2.809863   -2.860918   -2.689699 H        1 UNL1     0.0234
     111 H         -2.950146   -2.406403   -1.027597 H        1 UNL1     0.0234
     112 H         2.565341   -2.177784   0.780807 H        1 UNL1     0.0342
     113 H         2.582404   -0.390588   0.57133 H        1 UNL1     0.0342
     114 H         1.051282   -1.267807   0.635546 H        1 UNL1     0.0342
     115 H         1.002441   -5.29788   0.550027 H        1 UNL1     0.0234
     116 H         1.968947   -4.473012   1.777318 H        1 UNL1     0.0234
     117 H         0.298156   -4.999185   2.069289 H        1 UNL1     0.0234
     118 H         -5.206931   -5.854601   -1.894015 H        1 UNL1     0.0309
     119 H         -6.779889   -5.122226   -2.338415 H        1 UNL1     0.0309
     120 H         -5.342324   -4.149177   -2.117642 H        1 UNL1     0.0309
     121 H         -0.526535   -7.323387   0.798547 H        1 UNL1     0.0524
     122 H         -2.094681   -6.976896   1.538627 H        1 UNL1     0.0524
     123 H         -1.994134   -7.272475   -0.215302 H        1 UNL1     0.0524
@<TRIPOS>BOND
     1     1     2    1
     2     1    42    1
     3     2     3    2
     4     3     4    1
     5     4     5    2
     6     5     7    1
     7     6    75    1
     8     6    76    1
     9     6    77    1
    10     7     9   am
    11     9    10    1
    12    10    11    2
    13    10    43    1
    14    11    14    1
    15    11    15    1
    16    12    13   ar
    17    12    27   ar
    18    12    43    1
    19    13    14    1
    20    13    30   ar
    21    14    17    2
    22    15    16    1
    23    16    17    1
    24    16    18    1
    25    16    22    1
    26    18    19    1
    27    19    20    1
    28    20    21    1
    29    21    22    1
    30    23    24    1
    31    23    88    1
    32    23    89    1
    33    24    25    1
    34    24    26    1
    35    24    90    1
    36    25    91    1
    37    25    92    1
    38    25    93    1
    39    26    94    1
    40    26    95    1
    41    26    96    1
    42    27    28   ar
    43    28    29   ar
    44    29    30   ar
    45    29    31    1
    46    30    33    1
    47    31    32    1
    48    32    33    1
    49    32    35    1
    50    34    97    1
    51    34    98    1
    52    34    99    1
    53    35    61    1
    54    36    37    1
    55    36    60    1
    56    37    38    1
    57    38    39    1
    58    39    40    1
    59    40    41    1
    60    41    42    1
    61    45   100    1
    62    47   101    1
    63    47   102    1
    64    47   103    1
    65    48   104    1
    66    49   105    1
    67    49   106    1
    68    49   107    1
    69    50   108    1
    70    51    59    1
    71    52   109    1
    72    52   110    1
    73    52   111    1
    74    53    54    1
    75    54    55    2
    76    54    56    1
    77    56   112    1
    78    56   113    1
    79    56   114    1
    80    57   115    1
    81    57   116    1
    82    57   117    1
    83    58   118    1
    84    58   119    1
    85    58   120    1
    86    59   121    1
    87    59   122    1
    88    59   123    1
    89    60    61    2
    90     1    47    1
    91     1    62    1
    92     2    63    1
    93     3    64    1
    94     4    65    1
    95     5     6    1
    96     7     8    2
    97     9    78    1
    98    15    79    1
    99    18    80    1
   100    18    81    1
   101    19    82    1
   102    19    83    1
   103    20    23    1
   104    21    84    1
   105    21    85    1
   106    22    86    1
   107    22    87    1
   108    27    45    1
   109    28    34    1
   110    32    58    1
   111    33    46    2
   112    36    51    1
   113    36    66    1
   114    37    52    1
   115    37    67    1
   116    38    53    1
   117    38    68    1
   118    42    48    1
   119    42    72    1
   120    43    44    2
   121    60    73    1
   122    61    74    1
   123    39    69    1
   124    39    57    1
   125    40    70    1
   126    40    50    1
   127    41    71    1
   128    41    49    1
