@<TRIPOS>MOLECULE
*****
 123 128 0 0 0
SMALL
GASTEIGER

@<TRIPOS>ATOM
     1 C         -1.592087   3.708553   -0.951736 C.3        1 UNL1     0.0009
     2 C         -3.37538   4.212779   -0.90016 C.2        1 UNL1     -0.0787
     3 C         -4.6306   4.460975   -1.577558 C.2        1 UNL1     -0.0649
     4 C         -6.128571   4.841427   -0.886402 C.2        1 UNL1     -0.0542
     5 C         -7.530163   4.862616   -1.091758 C.2        1 UNL1     0.0115
     6 C         -8.646306   4.698971   -2.159826 C.3        1 UNL1     -0.0348
     7 C         -8.50059   4.965957   0.182832 C.2        1 UNL1     0.2441
     8 O         -9.052029   6.005635   0.516764 O.2        1 UNL1     -0.2702
     9 N         -8.881354   3.730483   0.734895 N.am        1 UNL1     -0.2772
     10 C         -7.962094   3.319893   1.672817 C.2        1 UNL1     0.1049
     11 C         -6.889219   2.706748   1.206754 C.2        1 UNL1     0.0801
     12 C         -6.690004   4.103502   3.679077 C.ar        1 UNL1     0.0753
     13 C         -5.515125   3.604219   3.031788 C.ar        1 UNL1     0.0305
     14 C         -5.596801   2.772123   1.833457 C.2        1 UNL1     0.0924
     15 N         -6.634731   2.225535   -0.022147 N.pl3        1 UNL1     -0.3170
     16 C         -5.395033   1.497753   0.038976 C.3        1 UNL1     0.1275
     17 N         -4.630428   2.147834   1.166139 N.2        1 UNL1     -0.2557
     18 C         -5.723309   0.084189   0.509905 C.3        1 UNL1     0.0016
     19 C         -6.756829   -0.514175   -0.431045 C.3        1 UNL1     0.0026
     20 N         -6.20971   -0.525354   -1.780699 N.3        1 UNL1     -0.3018
     21 C         -5.806122   0.783477   -2.298817 C.3        1 UNL1     0.0026
     22 C         -4.764431   1.364124   -1.34089 C.3        1 UNL1     0.0016
     23 C         -6.983414   -1.340235   -2.696119 C.3        1 UNL1     0.0012
     24 C         -6.819859   -2.83092   -2.360165 C.3        1 UNL1     -0.0339
     25 C         -8.128746   -3.433354   -1.82356 C.3        1 UNL1     -0.0615
     26 C         -6.314206   -3.586519   -3.576785 C.3        1 UNL1     -0.0615
     27 C         -6.61087   4.793335   4.886548 C.ar        1 UNL1     0.1347
     28 C         -5.421638   5.009685   5.559578 C.ar        1 UNL1     0.0342
     29 C         -4.273116   4.552094   4.879377 C.ar        1 UNL1     0.1435
     30 C         -4.333744   3.891334   3.651802 C.ar        1 UNL1     0.0774
     31 O         -3.051384   4.590197   5.454639 O.3        1 UNL1     -0.4436
     32 C         -2.268529   3.648034   4.706078 C.3        1 UNL1     0.3143
     33 C         -2.959724   3.537931   3.362077 C.2        1 UNL1     0.2504
     34 C         -5.285437   5.514855   6.968958 C.3        1 UNL1     -0.0327
     35 O         -0.989686   4.249562   4.469486 O.2        1 UNL1     -0.4528
     36 C         1.49141   1.382587   4.288634 C.3        1 UNL1     0.0854
     37 C         1.497118   0.128787   3.331829 C.3        1 UNL1     0.0236
     38 C         2.845828   -0.070944   2.487534 C.3        1 UNL1     0.1131
     39 C         3.439715   1.138517   1.658816 C.3        1 UNL1     0.0200
     40 C         2.43645   2.114245   0.751154 C.3        1 UNL1     0.0661
     41 C         1.270792   1.58088   -0.359869 C.3        1 UNL1     0.0091
     42 C         -0.345231   2.309976   -0.831348 C.3        1 UNL1     0.0661
     43 C         -8.0039   3.784597   3.067326 C.2        1 UNL1     0.2131
     44 O         -9.053812   3.795253   3.684018 O.2        1 UNL1     -0.2851
     45 O         -7.796934   5.285782   5.427091 O.3        1 UNL1     -0.5056
     46 O         -2.479754   3.246021   2.28957 O.2        1 UNL1     -0.2836
     47 C         -0.724461   4.854359   -1.538538 C.3        1 UNL1     -0.0566
     48 O         -0.110749   2.172572   -2.289173 O.3        1 UNL1     -0.3909
     49 C         1.043778   0.099577   -0.155664 C.3        1 UNL1     -0.0577
     50 O         1.908705   3.161855   1.539648 O.3        1 UNL1     -0.3910
     51 O         2.585504   2.262012   4.158249 O.3        1 UNL1     -0.3753
     52 C         0.084554   -0.141125   2.718023 C.3        1 UNL1     -0.0564
     53 O         2.96927   -1.431296   1.865818 O.3        1 UNL1     -0.4608
     54 C         3.504199   -1.696192   0.632282 C.2        1 UNL1     0.3042
     55 O         2.899794   -2.013117   -0.391482 O.2        1 UNL1     -0.2512
     56 C         4.993396   -1.508858   0.569742 C.3        1 UNL1     0.0332
     57 C         4.546821   1.849032   2.568574 C.3        1 UNL1     -0.0567
     58 C         -2.391646   2.293921   5.442794 C.3        1 UNL1     0.0210
     59 C         3.450844   2.314315   5.291526 C.3        1 UNL1     0.0372
     60 C         0.260352   2.216615   4.224952 C.2        1 UNL1     -0.0208
     61 C         0.115577   3.541224   4.168424 C.2        1 UNL1     0.0882
     62 H         -1.551073   3.812237   0.139263 H        1 UNL1     0.0365
     63 H         -3.481552   4.47802   0.153806 H        1 UNL1     0.0576
     64 H         -4.756872   4.254373   -2.642677 H        1 UNL1     0.0615
     65 H         -5.880133   5.10531   0.145163 H        1 UNL1     0.0622
     66 H         1.514857   0.956835   5.301665 H        1 UNL1     0.0645
     67 H         1.539232   -0.733363   4.019931 H        1 UNL1     0.0362
     68 H         3.556109   -0.236451   3.311931 H        1 UNL1     0.0741
     69 H         4.125605   0.749419   0.918163 H        1 UNL1     0.0359
     70 H         3.185621   2.606887   0.102227 H        1 UNL1     0.0600
     71 H         1.874314   1.581939   -1.288695 H        1 UNL1     0.0348
     72 H         0.229938   3.123177   -0.365299 H        1 UNL1     0.0602
     73 H         -0.589889   1.595152   4.359568 H        1 UNL1     0.0628
     74 H         0.927784   4.242596   3.974429 H        1 UNL1     0.1022
     75 H         -8.401864   5.289029   -3.075858 H        1 UNL1     0.0279
     76 H         -8.793281   3.697685   -2.558442 H        1 UNL1     0.0279
     77 H         -9.598054   5.157644   -1.854056 H        1 UNL1     0.0279
     78 H         -8.909542   3.023158   0.003476 H        1 UNL1     0.1553
     79 H         -7.346199   2.031391   -0.702628 H        1 UNL1     0.1484
     80 H         -4.802235   -0.510954   0.523841 H        1 UNL1     0.0317
     81 H         -6.106556   0.09268   1.535918 H        1 UNL1     0.0317
     82 H         -7.708227   0.036638   -0.394164 H        1 UNL1     0.0428
     83 H         -6.977785   -1.521205   -0.075915 H        1 UNL1     0.0428
     84 H         -5.32565   0.737239   -3.28107 H        1 UNL1     0.0428
     85 H         -6.669295   1.445203   -2.454918 H        1 UNL1     0.0428
     86 H         -4.396576   2.253664   -1.817743 H        1 UNL1     0.0317
     87 H         -3.883132   0.712077   -1.305655 H        1 UNL1     0.0317
     88 H         -8.041548   -1.070464   -2.582676 H        1 UNL1     0.0429
     89 H         -6.70981   -1.137131   -3.739509 H        1 UNL1     0.0429
     90 H         -6.043757   -2.943361   -1.593851 H        1 UNL1     0.0308
     91 H         -8.998428   -2.865972   -2.168281 H        1 UNL1     0.0233
     92 H         -8.232202   -4.474534   -2.137965 H        1 UNL1     0.0233
     93 H         -8.167083   -3.439653   -0.72751 H        1 UNL1     0.0233
     94 H         -6.259969   -4.658811   -3.359795 H        1 UNL1     0.0233
     95 H         -7.00161   -3.446696   -4.415765 H        1 UNL1     0.0233
     96 H         -5.319416   -3.243455   -3.874556 H        1 UNL1     0.0233
     97 H         -5.413871   6.591422   7.030115 H        1 UNL1     0.0280
     98 H         -6.041427   5.083517   7.638049 H        1 UNL1     0.0280
     99 H         -4.284265   5.263752   7.355864 H        1 UNL1     0.0280
     100 H         -8.531198   4.701263   5.357699 H        1 UNL1     0.2922
     101 H         -0.178387   5.349934   -0.736126 H        1 UNL1     0.0236
     102 H         -1.296253   5.559781   -2.140548 H        1 UNL1     0.0236
     103 H         0.057966   4.475471   -2.217099 H        1 UNL1     0.0236
     104 H         0.830705   2.373939   -2.456761 H        1 UNL1     0.2098
     105 H         1.313336   -0.517895   -1.008822 H        1 UNL1     0.0234
     106 H         1.479588   -0.306317   0.75716 H        1 UNL1     0.0234
     107 H         0.0   0.0   0.0 H        1 UNL1     0.0234
     108 H         1.125433   3.510596   1.072066 H        1 UNL1     0.2098
     109 H         -0.671318   -0.347483   3.488598 H        1 UNL1     0.0234
     110 H         -0.265024   0.669516   2.069641 H        1 UNL1     0.0234
     111 H         0.089588   -1.022539   2.063019 H        1 UNL1     0.0234
     112 H         5.352228   -1.715185   -0.443182 H        1 UNL1     0.0342
     113 H         5.295185   -0.514791   0.896236 H        1 UNL1     0.0342
     114 H         5.459607   -2.237524   1.247133 H        1 UNL1     0.0342
     115 H         5.286817   1.130537   2.947201 H        1 UNL1     0.0234
     116 H         5.093243   2.646575   2.061229 H        1 UNL1     0.0234
     117 H         4.145003   2.257986   3.51157 H        1 UNL1     0.0234
     118 H         -1.444471   1.997493   5.926526 H        1 UNL1     0.0309
     119 H         -3.193505   2.281512   6.187824 H        1 UNL1     0.0309
     120 H         -2.598296   1.461716   4.761004 H        1 UNL1     0.0309
     121 H         4.140178   1.473527   5.219066 H        1 UNL1     0.0524
     122 H         4.054109   3.237113   5.31504 H        1 UNL1     0.0524
     123 H         2.873059   2.24732   6.209006 H        1 UNL1     0.0524
@<TRIPOS>BOND
     1     1     2    1
     2     1    42    1
     3     2     3    2
     4     3     4    1
     5     4     5    2
     6     5     7    1
     7     6    75    1
     8     6    76    1
     9     6    77    1
    10     7     9   am
    11     9    10    1
    12    10    11    2
    13    10    43    1
    14    11    14    1
    15    11    15    1
    16    12    13   ar
    17    12    27   ar
    18    12    43    1
    19    13    14    1
    20    13    30   ar
    21    14    17    2
    22    15    16    1
    23    16    17    1
    24    16    18    1
    25    16    22    1
    26    18    19    1
    27    19    20    1
    28    20    21    1
    29    21    22    1
    30    23    24    1
    31    23    88    1
    32    23    89    1
    33    24    25    1
    34    24    26    1
    35    24    90    1
    36    25    91    1
    37    25    92    1
    38    25    93    1
    39    26    94    1
    40    26    95    1
    41    26    96    1
    42    27    28   ar
    43    28    29   ar
    44    29    30   ar
    45    29    31    1
    46    30    33    1
    47    31    32    1
    48    32    33    1
    49    32    35    1
    50    34    97    1
    51    34    98    1
    52    34    99    1
    53    35    61    1
    54    36    37    1
    55    36    60    1
    56    37    38    1
    57    38    39    1
    58    39    40    1
    59    40    41    1
    60    41    42    1
    61    45   100    1
    62    47   101    1
    63    47   102    1
    64    47   103    1
    65    48   104    1
    66    49   105    1
    67    49   106    1
    68    49   107    1
    69    50   108    1
    70    51    59    1
    71    52   109    1
    72    52   110    1
    73    52   111    1
    74    53    54    1
    75    54    55    2
    76    54    56    1
    77    56   112    1
    78    56   113    1
    79    56   114    1
    80    57   115    1
    81    57   116    1
    82    57   117    1
    83    58   118    1
    84    58   119    1
    85    58   120    1
    86    59   121    1
    87    59   122    1
    88    59   123    1
    89    60    61    2
    90     1    47    1
    91     1    62    1
    92     2    63    1
    93     3    64    1
    94     4    65    1
    95     5     6    1
    96     7     8    2
    97     9    78    1
    98    15    79    1
    99    18    80    1
   100    18    81    1
   101    19    82    1
   102    19    83    1
   103    20    23    1
   104    21    84    1
   105    21    85    1
   106    22    86    1
   107    22    87    1
   108    27    45    1
   109    28    34    1
   110    32    58    1
   111    33    46    2
   112    36    51    1
   113    36    66    1
   114    37    52    1
   115    37    67    1
   116    38    53    1
   117    38    68    1
   118    42    48    1
   119    42    72    1
   120    43    44    2
   121    60    73    1
   122    61    74    1
   123    39    69    1
   124    39    57    1
   125    40    70    1
   126    40    50    1
   127    41    71    1
   128    41    49    1
