@<TRIPOS>MOLECULE
*****
 123 128 0 0 0
SMALL
GASTEIGER

@<TRIPOS>ATOM
     1 C         -3.720132   0.20143   -1.841367 C.3        1 UNL1     0.0009
     2 C         -5.267755   -0.692023   -1.347766 C.2        1 UNL1     -0.0787
     3 C         -6.203096   -1.781235   -1.534315 C.2        1 UNL1     -0.0649
     4 C         -7.53783   -2.182785   -0.573275 C.2        1 UNL1     -0.0542
     5 C         -8.447187   -3.210127   -0.220124 C.2        1 UNL1     0.0115
     6 C         -8.942197   -4.633935   -0.595702 C.3        1 UNL1     -0.0348
     7 C         -9.29005   -3.068255   1.138715 C.2        1 UNL1     0.2441
     8 O         -10.464862   -2.727866   1.160575 O.2        1 UNL1     -0.2702
     9 N         -8.668395   -3.610943   2.276778 N.am        1 UNL1     -0.2772
     10 C         -7.857396   -2.673424   2.873989 C.2        1 UNL1     0.1049
     11 C         -6.648744   -2.536949   2.359443 C.2        1 UNL1     0.0801
     12 C         -7.823079   -0.30599   3.68109 C.ar        1 UNL1     0.0753
     13 C         -6.614554   -0.150038   2.930254 C.ar        1 UNL1     0.0305
     14 C         -5.919235   -1.29794   2.35241 C.2        1 UNL1     0.0924
     15 N         -5.994234   -3.308858   1.474966 N.pl3        1 UNL1     -0.3170
     16 C         -4.64525   -2.818022   1.377113 C.3        1 UNL1     0.1275
     17 N         -4.750886   -1.351886   1.719182 N.2        1 UNL1     -0.2557
     18 C         -3.84727   -3.460253   2.507807 C.3        1 UNL1     0.0016
     19 C         -3.975232   -4.97113   2.396161 C.3        1 UNL1     0.0026
     20 N         -3.470034   -5.388521   1.09555 N.3        1 UNL1     -0.3018
     21 C         -4.135367   -4.775344   -0.055847 C.3        1 UNL1     0.0026
     22 C         -3.990533   -3.25812   0.074344 C.3        1 UNL1     0.0016
     23 C         -3.268564   -6.820755   1.001964 C.3        1 UNL1     0.0012
     24 C         -2.401146   -7.319998   2.168197 C.3        1 UNL1     -0.0339
     25 C         -1.835667   -6.149726   2.98963 C.3        1 UNL1     -0.0615
     26 C         -3.19733   -8.278933   3.036134 C.3        1 UNL1     -0.0615
     27 C         -8.414225   0.775446   4.33006 C.ar        1 UNL1     0.1347
     28 C         -7.870171   2.047471   4.333171 C.ar        1 UNL1     0.0342
     29 C         -6.706733   2.187829   3.547121 C.ar        1 UNL1     0.1435
     30 C         -6.12325   1.121368   2.861972 C.ar        1 UNL1     0.0774
     31 O         -5.997559   3.337601   3.536945 O.3        1 UNL1     -0.4436
     32 C         -4.701981   2.960263   3.04708 C.3        1 UNL1     0.3143
     33 C         -4.931275   1.684206   2.262659 C.2        1 UNL1     0.2504
     34 C         -8.306377   3.190864   5.206371 C.3        1 UNL1     -0.0327
     35 O         -4.294367   3.960962   2.105962 O.2        1 UNL1     -0.4528
     36 C         -0.504542   4.075886   2.285147 C.3        1 UNL1     0.0854
     37 C         0.539318   2.915819   2.05684 C.3        1 UNL1     0.0236
     38 C         1.656852   3.220794   0.947853 C.3        1 UNL1     0.1131
     39 C         1.222457   3.732558   -0.484511 C.3        1 UNL1     0.0200
     40 C         -0.070676   3.035316   -1.27451 C.3        1 UNL1     0.0661
     41 C         -0.316051   1.372475   -1.503337 C.3        1 UNL1     0.0091
     42 C         -1.869134   0.400677   -1.597923 C.3        1 UNL1     0.0661
     43 C         -8.377861   -1.675342   3.820194 C.2        1 UNL1     0.2131
     44 O         -9.134912   -2.007206   4.714329 O.2        1 UNL1     -0.2851
     45 O         -9.613866   0.547791   5.001231 O.3        1 UNL1     -0.5056
     46 O         -4.287888   1.242906   1.336829 O.2        1 UNL1     -0.2836
     47 C         -3.953149   0.99986   -3.152166 C.3        1 UNL1     -0.0566
     48 O         -1.46203   -0.34596   -2.812796 O.3        1 UNL1     -0.3909
     49 C         0.626474   0.610999   -0.598189 C.3        1 UNL1     -0.0577
     50 O         -1.283043   3.654903   -0.895036 O.3        1 UNL1     -0.3910
     51 O         -0.437079   5.152723   1.377788 O.3        1 UNL1     -0.3753
     52 C         -0.116418   1.504609   2.209959 C.3        1 UNL1     -0.0564
     53 O         2.822827   2.277067   0.994835 O.3        1 UNL1     -0.4608
     54 C         3.280739   1.526056   -0.055988 C.2        1 UNL1     0.3042
     55 O         4.188504   1.809214   -0.836772 O.2        1 UNL1     -0.2512
     56 C         2.597615   0.194487   -0.18629 C.3        1 UNL1     0.0332
     57 C         1.317494   5.329136   -0.475516 C.3        1 UNL1     -0.0567
     58 C         -3.842251   2.63389   4.290412 C.3        1 UNL1     0.0210
     59 C         -1.22597   6.287015   1.734017 C.3        1 UNL1     0.0372
     60 C         -1.927367   3.641554   2.330809 C.2        1 UNL1     -0.0208
     61 C         -3.010213   4.166134   1.755478 C.2        1 UNL1     0.0882
     62 H         -3.884149   0.902787   -1.014379 H        1 UNL1     0.0365
     63 H         -5.645255   -0.028969   -0.566535 H        1 UNL1     0.0576
     64 H         -6.020153   -2.574448   -2.262637 H        1 UNL1     0.0615
     65 H         -7.680564   -1.300324   0.056307 H        1 UNL1     0.0622
     66 H         -0.274571   4.460575   3.288728 H        1 UNL1     0.0645
     67 H         1.142662   2.912315   2.981245 H        1 UNL1     0.0362
     68 H         2.159267   4.076834   1.42356 H        1 UNL1     0.0741
     69 H         2.03882   3.568272   -1.175141 H        1 UNL1     0.0359
     70 H         0.115679   3.398979   -2.303141 H        1 UNL1     0.0600
     71 H         0.173198   1.238607   -2.488056 H        1 UNL1     0.0348
     72 H         -2.152383   1.444937   -1.794409 H        1 UNL1     0.0602
     73 H         -2.029743   2.854239   3.035723 H        1 UNL1     0.0628
     74 H         -2.986489   4.933873   0.981365 H        1 UNL1     0.1022
     75 H         -9.723899   -4.979476   0.123032 H        1 UNL1     0.0279
     76 H         -9.444676   -4.73551   -1.555008 H        1 UNL1     0.0279
     77 H         -8.167722   -5.403001   -0.459954 H        1 UNL1     0.0279
     78 H         -8.080162   -4.395518   2.003831 H        1 UNL1     0.1553
     79 H         -6.242381   -4.260461   1.275446 H        1 UNL1     0.1484
     80 H         -2.800898   -3.140337   2.433468 H        1 UNL1     0.0317
     81 H         -4.209994   -3.121497   3.484192 H        1 UNL1     0.0317
     82 H         -5.013382   -5.303742   2.542876 H        1 UNL1     0.0428
     83 H         -3.400355   -5.408961   3.212782 H        1 UNL1     0.0428
     84 H         -3.685391   -5.043827   -1.016706 H        1 UNL1     0.0428
     85 H         -5.179207   -5.105696   -0.148484 H        1 UNL1     0.0428
     86 H         -4.368752   -2.851199   -0.845088 H        1 UNL1     0.0317
     87 H         -2.929614   -2.980162   0.057465 H        1 UNL1     0.0317
     88 H         -4.250273   -7.308443   1.062828 H        1 UNL1     0.0429
     89 H         -2.830401   -7.099461   0.034954 H        1 UNL1     0.0429
     90 H         -1.563074   -7.903186   1.768521 H        1 UNL1     0.0308
     91 H         -2.324843   -6.07579   3.96551 H        1 UNL1     0.0233
     92 H         -0.759139   -6.265053   3.135905 H        1 UNL1     0.0233
     93 H         -1.97459   -5.183283   2.490106 H        1 UNL1     0.0233
     94 H         -2.661798   -8.475418   3.971247 H        1 UNL1     0.0233
     95 H         -4.165828   -7.838162   3.288512 H        1 UNL1     0.0233
     96 H         -3.365216   -9.232219   2.527187 H        1 UNL1     0.0233
     97 H         -8.559628   4.073124   4.626103 H        1 UNL1     0.0280
     98 H         -9.203846   2.947053   5.789776 H        1 UNL1     0.0280
     99 H         -7.492618   3.456019   5.901054 H        1 UNL1     0.0280
     100 H         -10.38163   0.600337   4.459567 H        1 UNL1     0.2922
     101 H         -4.643253   0.455543   -3.796475 H        1 UNL1     0.0236
     102 H         -3.028398   1.256636   -3.667806 H        1 UNL1     0.0236
     103 H         -4.448643   1.967211   -2.965321 H        1 UNL1     0.0236
     104 H         -1.681636   -1.287118   -2.668005 H        1 UNL1     0.2098
     105 H         1.324097   -0.038673   -1.120741 H        1 UNL1     0.0234
     106 H         1.155725   1.226333   0.129262 H        1 UNL1     0.0234
     107 H         0.0   0.0   0.0 H        1 UNL1     0.0234
     108 H         -1.749961   3.03802   -0.299039 H        1 UNL1     0.2098
     109 H         -1.083589   1.54952   2.729838 H        1 UNL1     0.0234
     110 H         -0.237272   0.980362   1.255861 H        1 UNL1     0.0234
     111 H         0.510931   0.829455   2.807075 H        1 UNL1     0.0234
     112 H         3.339533   -0.587632   -0.373886 H        1 UNL1     0.0342
     113 H         1.992405   -0.042556   0.687424 H        1 UNL1     0.0342
     114 H         1.926049   0.236936   -1.054831 H        1 UNL1     0.0342
     115 H         2.346525   5.677933   -0.638688 H        1 UNL1     0.0234
     116 H         0.683941   5.815775   -1.219721 H        1 UNL1     0.0234
     117 H         1.09387   5.777607   0.507747 H        1 UNL1     0.0234
     118 H         -3.757874   1.546537   4.462316 H        1 UNL1     0.0309
     119 H         -2.838519   3.068216   4.244739 H        1 UNL1     0.0309
     120 H         -4.290156   3.002499   5.219721 H        1 UNL1     0.0309
     121 H         -0.590172   7.168491   1.655809 H        1 UNL1     0.0524
     122 H         -2.080756   6.432746   1.052737 H        1 UNL1     0.0524
     123 H         -1.598114   6.182151   2.749205 H        1 UNL1     0.0524
@<TRIPOS>BOND
     1     1     2    1
     2     1    42    1
     3     2     3    2
     4     3     4    1
     5     4     5    2
     6     5     7    1
     7     6    75    1
     8     6    76    1
     9     6    77    1
    10     7     9   am
    11     9    10    1
    12    10    11    2
    13    10    43    1
    14    11    14    1
    15    11    15    1
    16    12    13   ar
    17    12    27   ar
    18    12    43    1
    19    13    14    1
    20    13    30   ar
    21    14    17    2
    22    15    16    1
    23    16    17    1
    24    16    18    1
    25    16    22    1
    26    18    19    1
    27    19    20    1
    28    20    21    1
    29    21    22    1
    30    23    24    1
    31    23    88    1
    32    23    89    1
    33    24    25    1
    34    24    26    1
    35    24    90    1
    36    25    91    1
    37    25    92    1
    38    25    93    1
    39    26    94    1
    40    26    95    1
    41    26    96    1
    42    27    28   ar
    43    28    29   ar
    44    29    30   ar
    45    29    31    1
    46    30    33    1
    47    31    32    1
    48    32    33    1
    49    32    35    1
    50    34    97    1
    51    34    98    1
    52    34    99    1
    53    35    61    1
    54    36    37    1
    55    36    60    1
    56    37    38    1
    57    38    39    1
    58    39    40    1
    59    40    41    1
    60    41    42    1
    61    45   100    1
    62    47   101    1
    63    47   102    1
    64    47   103    1
    65    48   104    1
    66    49   105    1
    67    49   106    1
    68    49   107    1
    69    50   108    1
    70    51    59    1
    71    52   109    1
    72    52   110    1
    73    52   111    1
    74    53    54    1
    75    54    55    2
    76    54    56    1
    77    56   112    1
    78    56   113    1
    79    56   114    1
    80    57   115    1
    81    57   116    1
    82    57   117    1
    83    58   118    1
    84    58   119    1
    85    58   120    1
    86    59   121    1
    87    59   122    1
    88    59   123    1
    89    60    61    2
    90     1    47    1
    91     1    62    1
    92     2    63    1
    93     3    64    1
    94     4    65    1
    95     5     6    1
    96     7     8    2
    97     9    78    1
    98    15    79    1
    99    18    80    1
   100    18    81    1
   101    19    82    1
   102    19    83    1
   103    20    23    1
   104    21    84    1
   105    21    85    1
   106    22    86    1
   107    22    87    1
   108    27    45    1
   109    28    34    1
   110    32    58    1
   111    33    46    2
   112    36    51    1
   113    36    66    1
   114    37    52    1
   115    37    67    1
   116    38    53    1
   117    38    68    1
   118    42    48    1
   119    42    72    1
   120    43    44    2
   121    60    73    1
   122    61    74    1
   123    39    69    1
   124    39    57    1
   125    40    70    1
   126    40    50    1
   127    41    71    1
   128    41    49    1
