@<TRIPOS>MOLECULE
*****
 123 128 0 0 0
SMALL
GASTEIGER

@<TRIPOS>ATOM
     1 C         5.168484   1.742531   0.499632 C.3        1 UNL1     0.0009
     2 C         6.607699   2.546403   -0.348593 C.2        1 UNL1     -0.0787
     3 C         7.890638   2.446269   -1.011985 C.2        1 UNL1     -0.0649
     4 C         8.770986   3.679908   -1.766622 C.2        1 UNL1     -0.0542
     5 C         9.793051   3.970798   -2.703556 C.2        1 UNL1     0.0115
     6 C         10.922001   3.3435   -3.566859 C.3        1 UNL1     -0.0348
     7 C         9.891339   5.453629   -3.310632 C.2        1 UNL1     0.2441
     8 O         10.715583   6.274428   -2.931901 O.2        1 UNL1     -0.2702
     9 N         9.143466   5.660953   -4.482747 N.am        1 UNL1     -0.2772
     10 C         7.860682   6.049406   -4.171473 C.2        1 UNL1     0.1049
     11 C         7.013154   5.079205   -3.880561 C.2        1 UNL1     0.0801
     12 C         6.561804   7.658399   -2.763855 C.ar        1 UNL1     0.0753
     13 C         5.800529   6.531665   -2.317155 C.ar        1 UNL1     0.0305
     14 C         5.916965   5.225494   -2.961679 C.2        1 UNL1     0.0924
     15 N         7.134383   3.749994   -4.038767 N.pl3        1 UNL1     -0.3170
     16 C         5.863212   3.152582   -3.726555 C.3        1 UNL1     0.1275
     17 N         5.226271   4.109109   -2.748248 N.2        1 UNL1     -0.2557
     18 C         5.012692   3.212091   -4.991773 C.3        1 UNL1     0.0016
     19 C         5.76872   2.526482   -6.118694 C.3        1 UNL1     0.0026
     20 N         6.036437   1.148235   -5.731665 N.3        1 UNL1     -0.3018
     21 C         6.797382   0.987503   -4.4909 C.3        1 UNL1     0.0026
     22 C         6.017511   1.679566   -3.37164 C.3        1 UNL1     0.0016
     23 C         6.481887   0.32758   -6.840152 C.3        1 UNL1     0.0012
     24 C         5.32788   0.079066   -7.824156 C.3        1 UNL1     -0.0339
     25 C         5.356775   1.081625   -8.989531 C.3        1 UNL1     -0.0615
     26 C         5.366352   -1.355939   -8.320202 C.3        1 UNL1     -0.0615
     27 C         6.35778   8.926621   -2.22524 C.ar        1 UNL1     0.1347
     28 C         5.397354   9.19786   -1.267085 C.ar        1 UNL1     0.0342
     29 C         4.693544   8.064527   -0.807334 C.ar        1 UNL1     0.1435
     30 C         4.912271   6.78197   -1.31174 C.ar        1 UNL1     0.0774
     31 O         3.65118   8.179835   0.044245 O.3        1 UNL1     -0.4436
     32 C         2.928203   6.947854   -0.098579 C.3        1 UNL1     0.3143
     33 C         3.941192   5.953204   -0.628425 C.2        1 UNL1     0.2504
     34 C         4.951455   10.564749   -0.827893 C.3        1 UNL1     -0.0327
     35 O         2.564677   6.512276   1.217237 O.2        1 UNL1     -0.4528
     36 C         -0.680092   4.583974   0.815718 C.3        1 UNL1     0.0854
     37 C         -0.985392   3.32332   -0.081536 C.3        1 UNL1     0.0236
     38 C         -1.588935   2.063434   0.705973 C.3        1 UNL1     0.1131
     39 C         -0.866157   1.53225   2.008933 C.3        1 UNL1     0.0200
     40 C         0.794774   1.384633   2.053124 C.3        1 UNL1     0.0661
     41 C         1.755246   0.613998   0.886407 C.3        1 UNL1     0.0091
     42 C         3.464286   0.974116   0.325249 C.3        1 UNL1     0.0661
     43 C         7.51357   7.448927   -3.883016 C.2        1 UNL1     0.2131
     44 O         7.915859   8.346132   -4.601294 O.2        1 UNL1     -0.2851
     45 O         7.172164   9.960469   -2.682816 O.3        1 UNL1     -0.5056
     46 O         3.955432   4.749717   -0.497004 O.2        1 UNL1     -0.2836
     47 C         5.561754   1.313294   1.938755 C.3        1 UNL1     -0.0566
     48 O         3.910924   -0.437512   0.408553 O.3        1 UNL1     -0.3909
     49 C         0.922964   0.381822   -0.354921 C.3        1 UNL1     -0.0577
     50 O         1.395812   2.60194   2.446368 O.3        1 UNL1     -0.3910
     51 O         -0.806884   4.395174   2.207015 O.3        1 UNL1     -0.3753
     52 C         0.060899   3.160937   -1.232125 C.3        1 UNL1     -0.0564
     53 O         -2.191254   1.024747   -0.194397 O.3        1 UNL1     -0.4608
     54 C         -2.415807   -0.284788   0.141195 C.2        1 UNL1     0.3042
     55 O         -1.8441   -1.278728   -0.30498 O.2        1 UNL1     -0.2512
     56 C         -3.447317   -0.461041   1.218987 C.3        1 UNL1     0.0332
     57 C         -1.588572   2.202805   3.268555 C.3        1 UNL1     -0.0567
     58 C         1.855239   7.193739   -1.184773 C.3        1 UNL1     0.0210
     59 C         -1.150825   5.568628   2.942255 C.3        1 UNL1     0.0372
     60 C         0.650103   5.211261   0.58713 C.2        1 UNL1     -0.0208
     61 C         1.562048   5.645793   1.457924 C.2        1 UNL1     0.0882
     62 H         4.693654   2.727349   0.585548 H        1 UNL1     0.0365
     63 H         6.342598   3.600593   -0.244305 H        1 UNL1     0.0576
     64 H         8.34746   1.478727   -1.231722 H        1 UNL1     0.0615
     65 H         8.284448   4.596099   -1.421141 H        1 UNL1     0.0622
     66 H         -1.423249   5.331281   0.503792 H        1 UNL1     0.0645
     67 H         -1.849467   3.633459   -0.694518 H        1 UNL1     0.0362
     68 H         -2.536072   2.50169   1.055809 H        1 UNL1     0.0741
     69 H         -1.199303   0.521674   2.204274 H        1 UNL1     0.0359
     70 H         0.904159   0.724622   2.934872 H        1 UNL1     0.0600
     71 H         1.796783   -0.406998   1.313956 H        1 UNL1     0.0348
     72 H         3.357293   1.462966   1.30448 H        1 UNL1     0.0602
     73 H         0.770078   5.407819   -0.449316 H        1 UNL1     0.0628
     74 H         1.542348   5.435711   2.527838 H        1 UNL1     0.1022
     75 H         10.964814   2.238246   -3.413187 H        1 UNL1     0.0279
     76 H         10.810377   3.425867   -4.645666 H        1 UNL1     0.0279
     77 H         11.926883   3.647105   -3.238624 H        1 UNL1     0.0279
     78 H         9.081291   4.790808   -5.007208 H        1 UNL1     0.1553
     79 H         7.8002   3.320839   -4.65476 H        1 UNL1     0.1484
     80 H         4.050449   2.722475   -4.799078 H        1 UNL1     0.0317
     81 H         4.787873   4.248987   -5.263718 H        1 UNL1     0.0317
     82 H         6.70049   3.056476   -6.365316 H        1 UNL1     0.0428
     83 H         5.145211   2.581946   -7.011561 H        1 UNL1     0.0428
     84 H         6.915837   -0.055438   -4.180973 H        1 UNL1     0.0428
     85 H         7.828121   1.354178   -4.593094 H        1 UNL1     0.0428
     86 H         6.532015   1.429028   -2.462517 H        1 UNL1     0.0317
     87 H         5.037244   1.203234   -3.248027 H        1 UNL1     0.0317
     88 H         7.279564   0.868092   -7.366321 H        1 UNL1     0.0429
     89 H         6.912666   -0.618553   -6.487967 H        1 UNL1     0.0429
     90 H         4.374218   0.187259   -7.294028 H        1 UNL1     0.0308
     91 H         6.306591   1.035232   -9.530639 H        1 UNL1     0.0233
     92 H         4.537477   0.888195   -9.685911 H        1 UNL1     0.0233
     93 H         5.233136   2.117833   -8.652155 H        1 UNL1     0.0233
     94 H         4.671383   -1.485079   -9.156968 H        1 UNL1     0.0233
     95 H         6.371042   -1.601672   -8.675414 H        1 UNL1     0.0233
     96 H         5.089697   -2.059011   -7.529557 H        1 UNL1     0.0233
     97 H         4.156751   10.516364   -0.089425 H        1 UNL1     0.0280
     98 H         5.764099   11.134013   -0.357995 H        1 UNL1     0.0280
     99 H         4.580024   11.129293   -1.698769 H        1 UNL1     0.0280
     100 H         6.706647   10.711236   -3.007265 H        1 UNL1     0.2922
     101 H         4.697505   0.881012   2.442602 H        1 UNL1     0.0236
     102 H         6.012532   2.118376   2.518087 H        1 UNL1     0.0236
     103 H         6.31699   0.509669   1.939412 H        1 UNL1     0.0236
     104 H         4.330024   -0.563198   1.282354 H        1 UNL1     0.2098
     105 H         0.712463   1.280616   -0.92909 H        1 UNL1     0.0234
     106 H         1.292512   -0.407015   -1.009977 H        1 UNL1     0.0234
     107 H         0.0   -0.0   0.0 H        1 UNL1     0.0234
     108 H         1.196921   3.260808   1.753473 H        1 UNL1     0.2098
     109 H         1.084919   3.046371   -0.850065 H        1 UNL1     0.0234
     110 H         -0.17139   2.333769   -1.91152 H        1 UNL1     0.0234
     111 H         0.084355   4.043375   -1.885347 H        1 UNL1     0.0234
     112 H         -3.574403   -1.524714   1.442131 H        1 UNL1     0.0342
     113 H         -3.19947   0.10004   2.118767 H        1 UNL1     0.0342
     114 H         -4.406079   -0.079111   0.842064 H        1 UNL1     0.0342
     115 H         -2.653161   1.935748   3.318739 H        1 UNL1     0.0234
     116 H         -1.139049   1.942204   4.228797 H        1 UNL1     0.0234
     117 H         -1.647546   3.303143   3.207561 H        1 UNL1     0.0234
     118 H         0.954055   7.682001   -0.774316 H        1 UNL1     0.0309
     119 H         2.226838   7.780804   -2.030628 H        1 UNL1     0.0309
     120 H         1.466241   6.262043   -1.609897 H        1 UNL1     0.0309
     121 H         -0.345445   6.290097   2.807344 H        1 UNL1     0.0524
     122 H         -2.079751   6.035453   2.574551 H        1 UNL1     0.0524
     123 H         -1.268664   5.331042   3.995707 H        1 UNL1     0.0524
@<TRIPOS>BOND
     1     1     2    1
     2     1    42    1
     3     2     3    2
     4     3     4    1
     5     4     5    2
     6     5     7    1
     7     6    75    1
     8     6    76    1
     9     6    77    1
    10     7     9   am
    11     9    10    1
    12    10    11    2
    13    10    43    1
    14    11    14    1
    15    11    15    1
    16    12    13   ar
    17    12    27   ar
    18    12    43    1
    19    13    14    1
    20    13    30   ar
    21    14    17    2
    22    15    16    1
    23    16    17    1
    24    16    18    1
    25    16    22    1
    26    18    19    1
    27    19    20    1
    28    20    21    1
    29    21    22    1
    30    23    24    1
    31    23    88    1
    32    23    89    1
    33    24    25    1
    34    24    26    1
    35    24    90    1
    36    25    91    1
    37    25    92    1
    38    25    93    1
    39    26    94    1
    40    26    95    1
    41    26    96    1
    42    27    28   ar
    43    28    29   ar
    44    29    30   ar
    45    29    31    1
    46    30    33    1
    47    31    32    1
    48    32    33    1
    49    32    35    1
    50    34    97    1
    51    34    98    1
    52    34    99    1
    53    35    61    1
    54    36    37    1
    55    36    60    1
    56    37    38    1
    57    38    39    1
    58    39    40    1
    59    40    41    1
    60    41    42    1
    61    45   100    1
    62    47   101    1
    63    47   102    1
    64    47   103    1
    65    48   104    1
    66    49   105    1
    67    49   106    1
    68    49   107    1
    69    50   108    1
    70    51    59    1
    71    52   109    1
    72    52   110    1
    73    52   111    1
    74    53    54    1
    75    54    55    2
    76    54    56    1
    77    56   112    1
    78    56   113    1
    79    56   114    1
    80    57   115    1
    81    57   116    1
    82    57   117    1
    83    58   118    1
    84    58   119    1
    85    58   120    1
    86    59   121    1
    87    59   122    1
    88    59   123    1
    89    60    61    2
    90     1    47    1
    91     1    62    1
    92     2    63    1
    93     3    64    1
    94     4    65    1
    95     5     6    1
    96     7     8    2
    97     9    78    1
    98    15    79    1
    99    18    80    1
   100    18    81    1
   101    19    82    1
   102    19    83    1
   103    20    23    1
   104    21    84    1
   105    21    85    1
   106    22    86    1
   107    22    87    1
   108    27    45    1
   109    28    34    1
   110    32    58    1
   111    33    46    2
   112    36    51    1
   113    36    66    1
   114    37    52    1
   115    37    67    1
   116    38    53    1
   117    38    68    1
   118    42    48    1
   119    42    72    1
   120    43    44    2
   121    60    73    1
   122    61    74    1
   123    39    69    1
   124    39    57    1
   125    40    70    1
   126    40    50    1
   127    41    71    1
   128    41    49    1
