@<TRIPOS>MOLECULE
*****
 123 128 0 0 0
SMALL
GASTEIGER

@<TRIPOS>ATOM
     1 C         3.016209   3.226433   3.239117 C.3        1 UNL1     0.0009
     2 C         4.007083   4.788806   3.358274 C.2        1 UNL1     -0.0787
     3 C         5.286515   5.465911   3.383354 C.2        1 UNL1     -0.0649
     4 C         5.581431   7.132974   3.400175 C.2        1 UNL1     -0.0542
     5 C         6.538593   8.145359   3.143282 C.2        1 UNL1     0.0115
     6 C         8.03545   8.406586   2.820008 C.3        1 UNL1     -0.0348
     7 C         6.037963   9.659773   2.961879 C.2        1 UNL1     0.2441
     8 O         6.139769   10.504115   3.841225 O.2        1 UNL1     -0.2702
     9 N         5.715189   10.019264   1.641752 N.am        1 UNL1     -0.2772
     10 C         4.398623   9.724032   1.37191 C.2        1 UNL1     0.1049
     11 C         4.141222   8.475854   1.025473 C.2        1 UNL1     0.0801
     12 C         2.080619   9.992569   2.273065 C.ar        1 UNL1     0.0753
     13 C         1.922991   8.584481   2.070455 C.ar        1 UNL1     0.0305
     14 C         2.903266   7.805332   1.317437 C.2        1 UNL1     0.0924
     15 N         4.981084   7.482703   0.686636 N.pl3        1 UNL1     -0.3170
     16 C         4.18755   6.372995   0.229357 C.3        1 UNL1     0.1275
     17 N         2.870963   6.527253   0.950834 N.2        1 UNL1     -0.2557
     18 C         3.890634   6.608058   -1.248577 C.3        1 UNL1     0.0016
     19 C         5.207802   6.784512   -1.987171 C.3        1 UNL1     0.0026
     20 N         6.013887   5.586275   -1.798805 N.3        1 UNL1     -0.3018
     21 C         6.300642   5.242713   -0.404493 C.3        1 UNL1     0.0026
     22 C         4.963722   5.065574   0.317422 C.3        1 UNL1     0.0016
     23 C         7.150063   5.524063   -2.696511 C.3        1 UNL1     0.0012
     24 C         6.683562   5.273267   -4.139159 C.3        1 UNL1     -0.0339
     25 C         6.57461   6.586546   -4.931298 C.3        1 UNL1     -0.0615
     26 C         7.611758   4.283894   -4.822075 C.3        1 UNL1     -0.0615
     27 C         1.084921   10.749465   2.8861 C.ar        1 UNL1     0.1347
     28 C         -0.123499   10.218858   3.301101 C.ar        1 UNL1     0.0342
     29 C         -0.236455   8.822045   3.135819 C.ar        1 UNL1     0.1435
     30 C         0.767353   8.045047   2.556281 C.ar        1 UNL1     0.0774
     31 O         -1.394088   8.173661   3.389773 O.3        1 UNL1     -0.4436
     32 C         -1.277184   6.931327   2.679976 C.3        1 UNL1     0.3143
     33 C         0.212478   6.708205   2.514634 C.2        1 UNL1     0.2504
     34 C         -1.32991   11.005149   3.732863 C.3        1 UNL1     -0.0327
     35 O         -1.760046   5.898056   3.547413 O.2        1 UNL1     -0.4528
     36 C         -3.19027   3.215297   1.274672 C.3        1 UNL1     0.0854
     37 C         -2.485914   2.414461   0.112748 C.3        1 UNL1     0.0236
     38 C         -2.558897   0.818445   0.251134 C.3        1 UNL1     0.1131
     39 C         -2.12909   0.12751   1.607653 C.3        1 UNL1     0.0200
     40 C         -0.7534   0.623915   2.409836 C.3        1 UNL1     0.0661
     41 C         0.782498   0.82426   1.718107 C.3        1 UNL1     0.0091
     42 C         2.125874   2.005531   2.124729 C.3        1 UNL1     0.0661
     43 C         3.301701   10.636266   1.728203 C.2        1 UNL1     0.2131
     44 O         3.382509   11.825985   1.481677 O.2        1 UNL1     -0.2851
     45 O         1.336467   12.105194   3.086506 O.3        1 UNL1     -0.5056
     46 O         0.809165   5.661269   2.397405 O.2        1 UNL1     -0.2836
     47 C         3.088647   2.438726   4.574876 C.3        1 UNL1     -0.0566
     48 O         3.188361   0.971034   2.131924 O.3        1 UNL1     -0.3909
     49 C         0.644446   0.814471   0.212006 C.3        1 UNL1     -0.0577
     50 O         -1.03948   1.706019   3.272931 O.3        1 UNL1     -0.3910
     51 O         -3.638951   2.447161   2.368327 O.3        1 UNL1     -0.3753
     52 C         -1.204577   3.146211   -0.404618 C.3        1 UNL1     -0.0564
     53 O         -2.204082   0.089281   -1.011702 O.3        1 UNL1     -0.4608
     54 C         -1.819092   -1.223545   -1.090436 C.2        1 UNL1     0.3042
     55 O         -0.707909   -1.659387   -1.38902 O.2        1 UNL1     -0.2512
     56 C         -2.900991   -2.191711   -0.704607 C.3        1 UNL1     0.0332
     57 C         -3.454464   -0.102231   2.472972 C.3        1 UNL1     -0.0567
     58 C         -1.90464   7.163432   1.285717 C.3        1 UNL1     0.0210
     59 C         -4.739024   3.007816   3.083429 C.3        1 UNL1     0.0372
     60 C         -2.392521   4.338616   1.837621 C.2        1 UNL1     -0.0208
     61 C         -2.178007   4.696839   3.104272 C.2        1 UNL1     0.0882
     62 H         2.09967   3.827299   3.279458 H        1 UNL1     0.0365
     63 H         3.214246   5.520254   3.528161 H        1 UNL1     0.0576
     64 H         6.222796   4.926613   3.223221 H        1 UNL1     0.0615
     65 H         4.608049   7.56738   3.643693 H        1 UNL1     0.0622
     66 H         -4.067244   3.676999   0.799495 H        1 UNL1     0.0645
     67 H         -3.133769   2.588601   -0.763904 H        1 UNL1     0.0362
     68 H         -3.648508   0.677661   0.184425 H        1 UNL1     0.0741
     69 H         -1.928136   -0.918307   1.417145 H        1 UNL1     0.0359
     70 H         -0.605966   -0.238798   3.087367 H        1 UNL1     0.0600
     71 H         1.210466   -0.180471   1.903355 H        1 UNL1     0.0348
     72 H         1.471797   1.974306   3.008202 H        1 UNL1     0.0602
     73 H         -2.067262   4.967046   1.046083 H        1 UNL1     0.0628
     74 H         -2.4277   4.082091   3.969705 H        1 UNL1     0.1022
     75 H         8.596345   7.443166   2.75479 H        1 UNL1     0.0279
     76 H         8.250799   8.868538   1.859127 H        1 UNL1     0.0279
     77 H         8.565993   8.911195   3.640736 H        1 UNL1     0.0279
     78 H         6.288315   9.485093   0.991932 H        1 UNL1     0.1553
     79 H         5.929073   7.630834   0.392855 H        1 UNL1     0.1484
     80 H         3.323468   5.754645   -1.639443 H        1 UNL1     0.0317
     81 H         3.259513   7.492776   -1.385005 H        1 UNL1     0.0317
     82 H         5.747145   7.68158   -1.6491 H        1 UNL1     0.0428
     83 H         4.972829   6.952648   -3.038631 H        1 UNL1     0.0428
     84 H         6.838638   4.296831   -0.287535 H        1 UNL1     0.0428
     85 H         6.956996   5.983706   0.072419 H        1 UNL1     0.0428
     86 H         5.209044   4.687102   1.29239 H        1 UNL1     0.0317
     87 H         4.397572   4.244223   -0.138596 H        1 UNL1     0.0317
     88 H         7.667723   6.491521   -2.659792 H        1 UNL1     0.0429
     89 H         7.870877   4.761219   -2.375155 H        1 UNL1     0.0429
     90 H         5.697393   4.79441   -4.119647 H        1 UNL1     0.0308
     91 H         7.528864   7.121559   -4.947548 H        1 UNL1     0.0233
     92 H         6.254387   6.393097   -5.95777 H        1 UNL1     0.0233
     93 H         5.832877   7.271927   -4.503606 H        1 UNL1     0.0233
     94 H         7.401338   4.248261   -5.896454 H        1 UNL1     0.0233
     95 H         8.651691   4.596447   -4.692413 H        1 UNL1     0.0233
     96 H         7.492231   3.276772   -4.412944 H        1 UNL1     0.0233
     97 H         -2.171028   10.36171   3.973151 H        1 UNL1     0.0280
     98 H         -1.136304   11.596927   4.63706 H        1 UNL1     0.0280
     99 H         -1.636285   11.685993   2.921887 H        1 UNL1     0.0280
     100 H         0.680847   12.681266   2.734474 H        1 UNL1     0.2922
     101 H         2.46909   1.544634   4.508519 H        1 UNL1     0.0236
     102 H         2.839001   3.045682   5.444511 H        1 UNL1     0.0236
     103 H         4.104529   2.060799   4.778221 H        1 UNL1     0.0236
     104 H         3.303518   0.672917   3.055415 H        1 UNL1     0.2098
     105 H         0.193749   1.712259   -0.203516 H        1 UNL1     0.0234
     106 H         1.558378   0.566167   -0.32744 H        1 UNL1     0.0234
     107 H         0.0   0.0   -0.0 H        1 UNL1     0.0234
     108 H         -1.314334   2.458157   2.713903 H        1 UNL1     0.2098
     109 H         -0.45811   3.289185   0.389143 H        1 UNL1     0.0234
     110 H         -0.738564   2.645166   -1.259913 H        1 UNL1     0.0234
     111 H         -1.436417   4.1521   -0.779295 H        1 UNL1     0.0234
     112 H         -2.527208   -3.217285   -0.780972 H        1 UNL1     0.0342
     113 H         -3.293188   -1.991955   0.291446 H        1 UNL1     0.0342
     114 H         -3.730086   -2.081511   -1.417083 H        1 UNL1     0.0342
     115 H         -4.183166   -0.732204   1.94447 H        1 UNL1     0.0234
     116 H         -3.274112   -0.557012   3.449034 H        1 UNL1     0.0234
     117 H         -4.042633   0.818343   2.629631 H        1 UNL1     0.0234
     118 H         -3.003479   7.057267   1.302697 H        1 UNL1     0.0309
     119 H         -1.645363   8.135483   0.854329 H        1 UNL1     0.0309
     120 H         -1.589663   6.412664   0.552748 H        1 UNL1     0.0309
     121 H         -4.411576   3.960984   3.497683 H        1 UNL1     0.0524
     122 H         -5.603841   3.209547   2.429647 H        1 UNL1     0.0524
     123 H         -5.048715   2.338901   3.881388 H        1 UNL1     0.0524
@<TRIPOS>BOND
     1     1     2    1
     2     1    42    1
     3     2     3    2
     4     3     4    1
     5     4     5    2
     6     5     7    1
     7     6    75    1
     8     6    76    1
     9     6    77    1
    10     7     9   am
    11     9    10    1
    12    10    11    2
    13    10    43    1
    14    11    14    1
    15    11    15    1
    16    12    13   ar
    17    12    27   ar
    18    12    43    1
    19    13    14    1
    20    13    30   ar
    21    14    17    2
    22    15    16    1
    23    16    17    1
    24    16    18    1
    25    16    22    1
    26    18    19    1
    27    19    20    1
    28    20    21    1
    29    21    22    1
    30    23    24    1
    31    23    88    1
    32    23    89    1
    33    24    25    1
    34    24    26    1
    35    24    90    1
    36    25    91    1
    37    25    92    1
    38    25    93    1
    39    26    94    1
    40    26    95    1
    41    26    96    1
    42    27    28   ar
    43    28    29   ar
    44    29    30   ar
    45    29    31    1
    46    30    33    1
    47    31    32    1
    48    32    33    1
    49    32    35    1
    50    34    97    1
    51    34    98    1
    52    34    99    1
    53    35    61    1
    54    36    37    1
    55    36    60    1
    56    37    38    1
    57    38    39    1
    58    39    40    1
    59    40    41    1
    60    41    42    1
    61    45   100    1
    62    47   101    1
    63    47   102    1
    64    47   103    1
    65    48   104    1
    66    49   105    1
    67    49   106    1
    68    49   107    1
    69    50   108    1
    70    51    59    1
    71    52   109    1
    72    52   110    1
    73    52   111    1
    74    53    54    1
    75    54    55    2
    76    54    56    1
    77    56   112    1
    78    56   113    1
    79    56   114    1
    80    57   115    1
    81    57   116    1
    82    57   117    1
    83    58   118    1
    84    58   119    1
    85    58   120    1
    86    59   121    1
    87    59   122    1
    88    59   123    1
    89    60    61    2
    90     1    47    1
    91     1    62    1
    92     2    63    1
    93     3    64    1
    94     4    65    1
    95     5     6    1
    96     7     8    2
    97     9    78    1
    98    15    79    1
    99    18    80    1
   100    18    81    1
   101    19    82    1
   102    19    83    1
   103    20    23    1
   104    21    84    1
   105    21    85    1
   106    22    86    1
   107    22    87    1
   108    27    45    1
   109    28    34    1
   110    32    58    1
   111    33    46    2
   112    36    51    1
   113    36    66    1
   114    37    52    1
   115    37    67    1
   116    38    53    1
   117    38    68    1
   118    42    48    1
   119    42    72    1
   120    43    44    2
   121    60    73    1
   122    61    74    1
   123    39    69    1
   124    39    57    1
   125    40    70    1
   126    40    50    1
   127    41    71    1
   128    41    49    1
