@<TRIPOS>MOLECULE
*****
 123 128 0 0 0
SMALL
GASTEIGER

@<TRIPOS>ATOM
     1 C         5.177643   1.734603   0.427122 C.3        1 UNL1     0.0009
     2 C         6.606784   2.534275   -0.441854 C.2        1 UNL1     -0.0787
     3 C         7.880589   2.430585   -1.122086 C.2        1 UNL1     -0.0649
     4 C         8.752892   3.661176   -1.89091 C.2        1 UNL1     -0.0542
     5 C         9.762865   3.948408   -2.841979 C.2        1 UNL1     0.0115
     6 C         10.879133   3.317419   -3.718974 C.3        1 UNL1     -0.0348
     7 C         9.85557   5.429838   -3.453336 C.2        1 UNL1     0.2441
     8 O         10.686186   6.249975   -3.087304 O.2        1 UNL1     -0.2702
     9 N         9.092486   5.636088   -4.615797 N.am        1 UNL1     -0.2772
     10 C         7.81463   6.027384   -4.288242 C.2        1 UNL1     0.1049
     11 C         6.969408   5.059238   -3.984077 C.2        1 UNL1     0.0801
     12 C         6.537377   7.641457   -2.866719 C.ar        1 UNL1     0.0753
     13 C         5.780212   6.516944   -2.407611 C.ar        1 UNL1     0.0305
     14 C         5.885821   5.209275   -3.050962 C.2        1 UNL1     0.0924
     15 N         7.086256   3.729503   -4.141171 N.pl3        1 UNL1     -0.3170
     16 C         5.818347   3.134919   -3.810821 C.3        1 UNL1     0.1275
     17 N         5.196137   4.094518   -2.826063 N.2        1 UNL1     -0.2557
     18 C         4.951133   3.193344   -5.064706 C.3        1 UNL1     0.0016
     19 C         5.690898   2.504156   -6.200205 C.3        1 UNL1     0.0026
     20 N         5.961409   1.126233   -5.813966 N.3        1 UNL1     -0.3018
     21 C         6.738558   0.966691   -4.583132 C.3        1 UNL1     0.0026
     22 C         5.97486   1.662359   -3.454988 C.3        1 UNL1     0.0016
     23 C         6.39064   0.302575   -6.926616 C.3        1 UNL1     0.0012
     24 C         5.223192   0.054069   -7.894639 C.3        1 UNL1     -0.0339
     25 C         5.565639   0.518765   -9.319716 C.3        1 UNL1     -0.0615
     26 C         4.825037   -1.411324   -7.865042 C.3        1 UNL1     -0.0615
     27 C         6.342711   8.911114   -2.328022 C.ar        1 UNL1     0.1347
     28 C         5.395611   9.185946   -1.357703 C.ar        1 UNL1     0.0342
     29 C         4.696069   8.05476   -0.886297 C.ar        1 UNL1     0.1435
     30 C         4.905868   6.770811   -1.390956 C.ar        1 UNL1     0.0774
     31 O         3.66535   8.173588   -0.021134 O.3        1 UNL1     -0.4436
     32 C         2.938439   6.942571   -0.151792 C.3        1 UNL1     0.3143
     33 C         3.94258   5.945105   -0.693064 C.2        1 UNL1     0.2504
     34 C         4.957933   10.554486   -0.915397 C.3        1 UNL1     -0.0327
     35 O         2.591753   6.510278   1.169641 O.2        1 UNL1     -0.4528
     36 C         -0.661357   4.58678   0.815354 C.3        1 UNL1     0.0854
     37 C         -0.980739   3.324846   -0.075174 C.3        1 UNL1     0.0236
     38 C         -1.575867   2.067597   0.722881 C.3        1 UNL1     0.1131
     39 C         -0.836683   1.537796   2.017171 C.3        1 UNL1     0.0200
     40 C         0.824437   1.387399   2.039514 C.3        1 UNL1     0.0661
     41 C         1.767952   0.612753   0.861672 C.3        1 UNL1     0.0091
     42 C         3.469967   0.968784   0.277045 C.3        1 UNL1     0.0661
     43 C         7.473776   7.428082   -3.99804 C.2        1 UNL1     0.2131
     44 O         7.867976   8.32314   -4.723448 O.2        1 UNL1     -0.2851
     45 O         7.152677   9.942628   -2.798525 O.3        1 UNL1     -0.5056
     46 O         3.956524   4.741864   -0.559389 O.2        1 UNL1     -0.2836
     47 C         5.58934   1.307593   1.861747 C.3        1 UNL1     -0.0566
     48 O         3.915275   -0.443442   0.357267 O.3        1 UNL1     -0.3909
     49 C         0.918797   0.37951   -0.367973 C.3        1 UNL1     -0.0577
     50 O         1.432735   2.604457   2.422225 O.3        1 UNL1     -0.3910
     51 O         -0.769905   4.401007   2.208601 O.3        1 UNL1     -0.3753
     52 C         0.049838   3.158334   -1.239277 C.3        1 UNL1     -0.0564
     53 O         -2.191906   1.028137   -0.167257 O.3        1 UNL1     -0.4608
     54 C         -2.395186   -0.285304   0.166629 C.2        1 UNL1     0.3042
     55 O         -1.727819   -1.257262   -0.185162 O.2        1 UNL1     -0.2512
     56 C         -3.541775   -0.494371   1.114437 C.3        1 UNL1     0.0332
     57 C         -1.541094   2.212139   3.284941 C.3        1 UNL1     -0.0567
     58 C         1.851505   7.188117   -1.224084 C.3        1 UNL1     0.0210
     59 C         -1.071033   5.582818   2.949215 C.3        1 UNL1     0.0372
     60 C         0.666737   5.211305   0.567771 C.2        1 UNL1     -0.0208
     61 C         1.590951   5.646017   1.425442 C.2        1 UNL1     0.0882
     62 H         4.705677   2.720412   0.517351 H        1 UNL1     0.0365
     63 H         6.34489   3.589129   -0.336193 H        1 UNL1     0.0576
     64 H         8.332794   1.461814   -1.345918 H        1 UNL1     0.0615
     65 H         8.272564   4.578902   -1.540843 H        1 UNL1     0.0622
     66 H         -1.407335   5.334737   0.511839 H        1 UNL1     0.0645
     67 H         -1.852383   3.63524   -0.677214 H        1 UNL1     0.0362
     68 H         -2.517508   2.508194   1.084418 H        1 UNL1     0.0741
     69 H         -1.168912   0.528193   2.218998 H        1 UNL1     0.0359
     70 H         0.944448   0.728981   2.921072 H        1 UNL1     0.0600
     71 H         1.813451   -0.407449   1.290713 H        1 UNL1     0.0348
     72 H         3.376873   1.459794   1.256615 H        1 UNL1     0.0602
     73 H         0.773213   5.405562   -0.470581 H        1 UNL1     0.0628
     74 H         1.585163   5.438129   2.495949 H        1 UNL1     0.1022
     75 H         10.870183   2.204774   -3.624238 H        1 UNL1     0.0279
     76 H         10.791674   3.461747   -4.793492 H        1 UNL1     0.0279
     77 H         11.890056   3.557581   -3.358336 H        1 UNL1     0.0279
     78 H         9.021843   4.764995   -5.137606 H        1 UNL1     0.1553
     79 H         7.743068   3.297956   -4.765109 H        1 UNL1     0.1484
     80 H         3.990714   2.705781   -4.8582 H        1 UNL1     0.0317
     81 H         4.724471   4.230076   -5.335745 H        1 UNL1     0.0317
     82 H         6.620197   3.032042   -6.460309 H        1 UNL1     0.0428
     83 H         5.055633   2.558896   -7.08479 H        1 UNL1     0.0428
     84 H         6.859361   -0.075825   -4.272683 H        1 UNL1     0.0428
     85 H         7.768464   1.331378   -4.699807 H        1 UNL1     0.0428
     86 H         6.501016   1.412768   -2.552296 H        1 UNL1     0.0317
     87 H         4.99552   1.187971   -3.317345 H        1 UNL1     0.0317
     88 H         7.182147   0.840644   -7.464476 H        1 UNL1     0.0429
     89 H         6.824468   -0.643589   -6.578275 H        1 UNL1     0.0429
     90 H         4.344303   0.610314   -7.547713 H        1 UNL1     0.0308
     91 H         6.561597   0.17971   -9.620066 H        1 UNL1     0.0233
     92 H         4.82895   0.145831   -10.035131 H        1 UNL1     0.0233
     93 H         5.559175   1.611285   -9.4156 H        1 UNL1     0.0233
     94 H         4.209372   -1.653146   -8.738148 H        1 UNL1     0.0233
     95 H         5.717993   -2.041849   -7.897136 H        1 UNL1     0.0233
     96 H         4.25528   -1.651892   -6.963114 H        1 UNL1     0.0233
     97 H         4.117824   10.511454   -0.22867 H        1 UNL1     0.0280
     98 H         5.753876   11.09165   -0.383244 H        1 UNL1     0.0280
     99 H         4.655838   11.147315   -1.794252 H        1 UNL1     0.0280
     100 H         6.688343   10.722057   -3.048538 H        1 UNL1     0.2922
     101 H         4.708851   0.982324   2.415458 H        1 UNL1     0.0236
     102 H         6.146433   2.07731   2.39482 H        1 UNL1     0.0236
     103 H         6.257005   0.429872   1.857029 H        1 UNL1     0.0236
     104 H         4.256721   -0.594196   1.260406 H        1 UNL1     0.2098
     105 H         0.702186   1.277505   -0.941118 H        1 UNL1     0.0234
     106 H         1.278235   -0.411285   -1.026286 H        1 UNL1     0.0234
     107 H         0.0   -0.0   0.0 H        1 UNL1     0.0234
     108 H         1.281716   3.244015   1.699779 H        1 UNL1     0.2098
     109 H         1.080146   3.055156   -0.871131 H        1 UNL1     0.0234
     110 H         -0.186174   2.322584   -1.906783 H        1 UNL1     0.0234
     111 H         0.057194   4.034189   -1.901674 H        1 UNL1     0.0234
     112 H         -3.63608   -1.5575   1.355703 H        1 UNL1     0.0342
     113 H         -3.440024   0.103933   2.018606 H        1 UNL1     0.0342
     114 H         -4.46578   -0.180321   0.609709 H        1 UNL1     0.0342
     115 H         -2.629986   2.066001   3.272896 H        1 UNL1     0.0234
     116 H         -1.171321   1.846513   4.244959 H        1 UNL1     0.0234
     117 H         -1.473982   3.313682   3.291304 H        1 UNL1     0.0234
     118 H         0.95484   7.67454   -0.80172 H        1 UNL1     0.0309
     119 H         2.211539   7.776734   -2.073854 H        1 UNL1     0.0309
     120 H         1.458569   6.256337   -1.645384 H        1 UNL1     0.0309
     121 H         -0.687231   5.445385   3.959742 H        1 UNL1     0.0524
     122 H         -0.582443   6.476843   2.527272 H        1 UNL1     0.0524
     123 H         -2.14459   5.746837   2.97508 H        1 UNL1     0.0524
@<TRIPOS>BOND
     1     1     2    1
     2     1    42    1
     3     2     3    2
     4     3     4    1
     5     4     5    2
     6     5     7    1
     7     6    75    1
     8     6    76    1
     9     6    77    1
    10     7     9   am
    11     9    10    1
    12    10    11    2
    13    10    43    1
    14    11    14    1
    15    11    15    1
    16    12    13   ar
    17    12    27   ar
    18    12    43    1
    19    13    14    1
    20    13    30   ar
    21    14    17    2
    22    15    16    1
    23    16    17    1
    24    16    18    1
    25    16    22    1
    26    18    19    1
    27    19    20    1
    28    20    21    1
    29    21    22    1
    30    23    24    1
    31    23    88    1
    32    23    89    1
    33    24    25    1
    34    24    26    1
    35    24    90    1
    36    25    91    1
    37    25    92    1
    38    25    93    1
    39    26    94    1
    40    26    95    1
    41    26    96    1
    42    27    28   ar
    43    28    29   ar
    44    29    30   ar
    45    29    31    1
    46    30    33    1
    47    31    32    1
    48    32    33    1
    49    32    35    1
    50    34    97    1
    51    34    98    1
    52    34    99    1
    53    35    61    1
    54    36    37    1
    55    36    60    1
    56    37    38    1
    57    38    39    1
    58    39    40    1
    59    40    41    1
    60    41    42    1
    61    45   100    1
    62    47   101    1
    63    47   102    1
    64    47   103    1
    65    48   104    1
    66    49   105    1
    67    49   106    1
    68    49   107    1
    69    50   108    1
    70    51    59    1
    71    52   109    1
    72    52   110    1
    73    52   111    1
    74    53    54    1
    75    54    55    2
    76    54    56    1
    77    56   112    1
    78    56   113    1
    79    56   114    1
    80    57   115    1
    81    57   116    1
    82    57   117    1
    83    58   118    1
    84    58   119    1
    85    58   120    1
    86    59   121    1
    87    59   122    1
    88    59   123    1
    89    60    61    2
    90     1    47    1
    91     1    62    1
    92     2    63    1
    93     3    64    1
    94     4    65    1
    95     5     6    1
    96     7     8    2
    97     9    78    1
    98    15    79    1
    99    18    80    1
   100    18    81    1
   101    19    82    1
   102    19    83    1
   103    20    23    1
   104    21    84    1
   105    21    85    1
   106    22    86    1
   107    22    87    1
   108    27    45    1
   109    28    34    1
   110    32    58    1
   111    33    46    2
   112    36    51    1
   113    36    66    1
   114    37    52    1
   115    37    67    1
   116    38    53    1
   117    38    68    1
   118    42    48    1
   119    42    72    1
   120    43    44    2
   121    60    73    1
   122    61    74    1
   123    39    69    1
   124    39    57    1
   125    40    70    1
   126    40    50    1
   127    41    71    1
   128    41    49    1
