@<TRIPOS>MOLECULE
*****
 123 128 0 0 0
SMALL
GASTEIGER

@<TRIPOS>ATOM
     1 C         3.364352   2.207395   -1.333995 C.3        1 UNL1     0.0009
     2 C         3.460543   4.027055   -1.675495 C.2        1 UNL1     -0.0787
     3 C         3.520056   5.127388   -2.614522 C.2        1 UNL1     -0.0649
     4 C         3.472898   6.786028   -2.278296 C.2        1 UNL1     -0.0542
     5 C         3.218386   8.072537   -2.814202 C.2        1 UNL1     0.0115
     6 C         2.961536   8.85739   -4.130012 C.3        1 UNL1     -0.0348
     7 C         2.939282   9.291903   -1.808102 C.2        1 UNL1     0.2441
     8 O         3.781571   10.136383   -1.536204 O.2        1 UNL1     -0.2702
     9 N         1.588515   9.474312   -1.464145 N.am        1 UNL1     -0.2772
     10 C         1.264747   8.709199   -0.367286 C.2        1 UNL1     0.1049
     11 C         0.965137   7.445491   -0.607073 C.2        1 UNL1     0.0801
     12 C         2.030018   8.129591   1.942638 C.ar        1 UNL1     0.0753
     13 C         1.886687   6.757501   1.56128 C.ar        1 UNL1     0.0305
     14 C         1.223727   6.374489   0.316757 C.2        1 UNL1     0.0924
     15 N         0.718186   6.82233   -1.772069 N.pl3        1 UNL1     -0.3170
     16 C         0.273469   5.48753   -1.470757 C.3        1 UNL1     0.1275
     17 N         0.917161   5.165203   -0.144299 N.2        1 UNL1     -0.2557
     18 C         -1.227443   5.559798   -1.20667 C.3        1 UNL1     0.0016
     19 C         -1.903914   6.189364   -2.413991 C.3        1 UNL1     0.0026
     20 N         -1.61698   5.376375   -3.587765 N.3        1 UNL1     -0.3018
     21 C         -0.194849   5.197402   -3.887566 C.3        1 UNL1     0.0026
     22 C         0.463986   4.559521   -2.663255 C.3        1 UNL1     0.0016
     23 C         -2.450247   5.713543   -4.724702 C.3        1 UNL1     0.0012
     24 C         -3.93753   5.591451   -4.357497 C.3        1 UNL1     -0.0339
     25 C         -4.671602   6.931171   -4.531691 C.3        1 UNL1     -0.0615
     26 C         -4.586778   4.487936   -5.174511 C.3        1 UNL1     -0.0615
     27 C         2.553597   8.48273   3.184119 C.ar        1 UNL1     0.1347
     28 C         2.929802   7.55575   4.139749 C.ar        1 UNL1     0.0342
     29 C         2.825498   6.211498   3.72349 C.ar        1 UNL1     0.1435
     30 C         2.336711   5.843494   2.469345 C.ar        1 UNL1     0.0774
     31 O         3.049308   5.189642   4.578316 O.3        1 UNL1     -0.4436
     32 C         2.406482   4.059799   3.969135 C.3        1 UNL1     0.3143
     33 C         2.32984   4.39569   2.493494 C.2        1 UNL1     0.2504
     34 C         3.260175   7.85422   5.57567 C.3        1 UNL1     -0.0327
     35 O         3.29574   2.94353   4.097269 O.2        1 UNL1     -0.4528
     36 C         1.081732   -0.133318   4.295415 C.3        1 UNL1     0.0854
     37 C         -0.002467   -0.648175   3.272206 C.3        1 UNL1     0.0236
     38 C         0.207701   -2.155299   2.766092 C.3        1 UNL1     0.1131
     39 C         1.616119   -2.605592   2.204075 C.3        1 UNL1     0.0200
     40 C         2.464412   -1.618345   1.160916 C.3        1 UNL1     0.0661
     41 C         1.844958   -0.885004   -0.237689 C.3        1 UNL1     0.0091
     42 C         2.264408   0.717131   -1.026758 C.3        1 UNL1     0.0661
     43 C         1.519556   9.163097   1.007996 C.2        1 UNL1     0.2131
     44 O         1.221255   10.292654   1.351295 O.2        1 UNL1     -0.2851
     45 O         2.702118   9.840603   3.458999 O.3        1 UNL1     -0.5056
     46 O         2.293823   3.638725   1.549269 O.2        1 UNL1     -0.2836
     47 C         4.738033   1.535274   -1.600895 C.3        1 UNL1     -0.0566
     48 O         2.376201   0.146046   -2.390753 O.3        1 UNL1     -0.3909
     49 C         0.335882   -0.982691   -0.212417 C.3        1 UNL1     -0.0577
     50 O         3.258956   -0.695787   1.878768 O.3        1 UNL1     -0.3910
     51 O         2.185812   -0.98485   4.503582 O.3        1 UNL1     -0.3753
     52 C         -0.486549   0.490028   2.315592 C.3        1 UNL1     -0.0564
     53 O         -0.998793   -2.734521   2.086977 O.3        1 UNL1     -0.4608
     54 C         -0.985612   -3.456822   0.922487 C.2        1 UNL1     0.3042
     55 O         -1.718324   -3.311072   -0.055127 O.2        1 UNL1     -0.2512
     56 C         0.102027   -4.49166   0.868957 C.3        1 UNL1     0.0332
     57 C         2.421107   -3.284529   3.407909 C.3        1 UNL1     -0.0567
     58 C         0.971944   4.009941   4.544584 C.3        1 UNL1     0.0210
     59 C         3.017467   -1.178326   3.360436 C.3        1 UNL1     0.0372
     60 C         1.631428   1.21834   4.002132 C.2        1 UNL1     -0.0208
     61 C         2.889061   1.662042   4.017345 C.2        1 UNL1     0.0882
     62 H         3.328218   2.430176   -0.260788 H        1 UNL1     0.0365
     63 H         3.553868   4.419954   -0.660906 H        1 UNL1     0.0576
     64 H         3.434797   4.966091   -3.691473 H        1 UNL1     0.0615
     65 H         3.644389   6.83827   -1.199711 H        1 UNL1     0.0622
     66 H         0.54005   -0.03833   5.247047 H        1 UNL1     0.0645
     67 H         -0.918997   -0.746411   3.879564 H        1 UNL1     0.0362
     68 H         0.091045   -2.68831   3.722028 H        1 UNL1     0.0741
     69 H         1.486321   -3.508797   1.622886 H        1 UNL1     0.0359
     70 H         3.188986   -2.349178   0.753563 H        1 UNL1     0.0600
     71 H         2.09986   -1.657137   -0.989881 H        1 UNL1     0.0348
     72 H         3.11306   0.46992   -0.372547 H        1 UNL1     0.0602
     73 H         0.828925   1.902222   3.877463 H        1 UNL1     0.0628
     74 H         3.768565   1.020508   4.08172 H        1 UNL1     0.1022
     75 H         2.100249   8.416613   -4.687628 H        1 UNL1     0.0279
     76 H         2.663914   9.898171   -4.023876 H        1 UNL1     0.0279
     77 H         3.775367   8.740642   -4.860594 H        1 UNL1     0.0279
     78 H         0.995612   9.172008   -2.234311 H        1 UNL1     0.1553
     79 H         0.467518   7.301063   -2.617594 H        1 UNL1     0.1484
     80 H         -1.606303   4.548134   -1.017551 H        1 UNL1     0.0317
     81 H         -1.43853   6.146923   -0.30646 H        1 UNL1     0.0317
     82 H         -1.581244   7.230061   -2.564811 H        1 UNL1     0.0428
     83 H         -2.973002   6.232895   -2.20374 H        1 UNL1     0.0428
     84 H         -0.00513   4.5187   -4.724932 H        1 UNL1     0.0428
     85 H         0.279841   6.139494   -4.194892 H        1 UNL1     0.0428
     86 H         1.467321   4.322326   -2.964995 H        1 UNL1     0.0317
     87 H         0.018664   3.576399   -2.467664 H        1 UNL1     0.0317
     88 H         -2.243304   6.755229   -5.002835 H        1 UNL1     0.0429
     89 H         -2.205391   5.093183   -5.596467 H        1 UNL1     0.0429
     90 H         -4.024428   5.27929   -3.310015 H        1 UNL1     0.0308
     91 H         -3.966989   7.76622   -4.589281 H        1 UNL1     0.0233
     92 H         -5.288229   6.919384   -5.43349 H        1 UNL1     0.0233
     93 H         -5.352025   7.145937   -3.698783 H        1 UNL1     0.0233
     94 H         -4.792561   4.841475   -6.190631 H        1 UNL1     0.0233
     95 H         -3.91242   3.629992   -5.246178 H        1 UNL1     0.0233
     96 H         -5.528464   4.160181   -4.725318 H        1 UNL1     0.0233
     97 H         3.445307   6.949893   6.147639 H        1 UNL1     0.0280
     98 H         4.168596   8.462886   5.673413 H        1 UNL1     0.0280
     99 H         2.419894   8.392976   6.043392 H        1 UNL1     0.0280
     100 H         2.284034   10.413334   2.840285 H        1 UNL1     0.2922
     101 H         5.07583   1.019595   -0.702216 H        1 UNL1     0.0236
     102 H         5.487765   2.22843   -1.980921 H        1 UNL1     0.0236
     103 H         4.670737   0.745816   -2.367981 H        1 UNL1     0.0236
     104 H         2.086294   -0.786061   -2.344929 H        1 UNL1     0.2098
     105 H         -0.1101   -1.29029   -1.154911 H        1 UNL1     0.0234
     106 H         -0.068395   -1.5754   0.608061 H        1 UNL1     0.0234
     107 H         0.0   0.0   0.0 H        1 UNL1     0.0234
     108 H         3.756706   -0.170026   1.223338 H        1 UNL1     0.2098
     109 H         0.040216   0.475007   1.351225 H        1 UNL1     0.0234
     110 H         -1.568041   0.475957   2.142622 H        1 UNL1     0.0234
     111 H         -0.298045   1.484398   2.741787 H        1 UNL1     0.0234
     112 H         0.747828   -4.308455   0.004825 H        1 UNL1     0.0342
     113 H         0.681886   -4.524379   1.790117 H        1 UNL1     0.0342
     114 H         -0.367317   -5.476132   0.735931 H        1 UNL1     0.0342
     115 H         3.061597   -4.106179   3.058837 H        1 UNL1     0.0234
     116 H         3.052332   -2.590858   3.966859 H        1 UNL1     0.0234
     117 H         1.772609   -3.811393   4.128885 H        1 UNL1     0.0234
     118 H         0.944527   3.557182   5.551194 H        1 UNL1     0.0309
     119 H         0.48894   4.991596   4.580134 H        1 UNL1     0.0309
     120 H         0.306542   3.365601   3.959629 H        1 UNL1     0.0309
     121 H         2.607286   -2.012362   2.791673 H        1 UNL1     0.0524
     122 H         3.028271   -0.297524   2.69703 H        1 UNL1     0.0524
     123 H         4.035193   -1.399683   3.66919 H        1 UNL1     0.0524
@<TRIPOS>BOND
     1     1     2    1
     2     1    42    1
     3     2     3    2
     4     3     4    1
     5     4     5    2
     6     5     7    1
     7     6    75    1
     8     6    76    1
     9     6    77    1
    10     7     9   am
    11     9    10    1
    12    10    11    2
    13    10    43    1
    14    11    14    1
    15    11    15    1
    16    12    13   ar
    17    12    27   ar
    18    12    43    1
    19    13    14    1
    20    13    30   ar
    21    14    17    2
    22    15    16    1
    23    16    17    1
    24    16    18    1
    25    16    22    1
    26    18    19    1
    27    19    20    1
    28    20    21    1
    29    21    22    1
    30    23    24    1
    31    23    88    1
    32    23    89    1
    33    24    25    1
    34    24    26    1
    35    24    90    1
    36    25    91    1
    37    25    92    1
    38    25    93    1
    39    26    94    1
    40    26    95    1
    41    26    96    1
    42    27    28   ar
    43    28    29   ar
    44    29    30   ar
    45    29    31    1
    46    30    33    1
    47    31    32    1
    48    32    33    1
    49    32    35    1
    50    34    97    1
    51    34    98    1
    52    34    99    1
    53    35    61    1
    54    36    37    1
    55    36    60    1
    56    37    38    1
    57    38    39    1
    58    39    40    1
    59    40    41    1
    60    41    42    1
    61    45   100    1
    62    47   101    1
    63    47   102    1
    64    47   103    1
    65    48   104    1
    66    49   105    1
    67    49   106    1
    68    49   107    1
    69    50   108    1
    70    51    59    1
    71    52   109    1
    72    52   110    1
    73    52   111    1
    74    53    54    1
    75    54    55    2
    76    54    56    1
    77    56   112    1
    78    56   113    1
    79    56   114    1
    80    57   115    1
    81    57   116    1
    82    57   117    1
    83    58   118    1
    84    58   119    1
    85    58   120    1
    86    59   121    1
    87    59   122    1
    88    59   123    1
    89    60    61    2
    90     1    47    1
    91     1    62    1
    92     2    63    1
    93     3    64    1
    94     4    65    1
    95     5     6    1
    96     7     8    2
    97     9    78    1
    98    15    79    1
    99    18    80    1
   100    18    81    1
   101    19    82    1
   102    19    83    1
   103    20    23    1
   104    21    84    1
   105    21    85    1
   106    22    86    1
   107    22    87    1
   108    27    45    1
   109    28    34    1
   110    32    58    1
   111    33    46    2
   112    36    51    1
   113    36    66    1
   114    37    52    1
   115    37    67    1
   116    38    53    1
   117    38    68    1
   118    42    48    1
   119    42    72    1
   120    43    44    2
   121    60    73    1
   122    61    74    1
   123    39    69    1
   124    39    57    1
   125    40    70    1
   126    40    50    1
   127    41    71    1
   128    41    49    1
