@<TRIPOS>MOLECULE
*****
 123 128 0 0 0
SMALL
GASTEIGER

@<TRIPOS>ATOM
     1 C         5.16732   1.748596   0.490229 C.3        1 UNL1     0.0009
     2 C         6.603893   2.554611   -0.360438 C.2        1 UNL1     -0.0787
     3 C         7.885607   2.456335   -1.02647 C.2        1 UNL1     -0.0649
     4 C         8.763006   3.691416   -1.782183 C.2        1 UNL1     -0.0542
     5 C         9.782843   3.984016   -2.721009 C.2        1 UNL1     0.0115
     6 C         10.910776   3.35851   -3.586938 C.3        1 UNL1     -0.0348
     7 C         9.878193   5.467301   -3.327444 C.2        1 UNL1     0.2441
     8 O         10.702249   6.28884   -2.949911 O.2        1 UNL1     -0.2702
     9 N         9.12772   5.674417   -4.497934 N.am        1 UNL1     -0.2772
     10 C         7.845118   6.06121   -4.183856 C.2        1 UNL1     0.1049
     11 C         6.999301   5.089866   -3.891786 C.2        1 UNL1     0.0801
     12 C         6.547219   7.667907   -2.772716 C.ar        1 UNL1     0.0753
     13 C         5.78815   6.540042   -2.325121 C.ar        1 UNL1     0.0305
     14 C         5.904797   5.234369   -2.970615 C.2        1 UNL1     0.0924
     15 N         7.121747   3.760885   -4.050986 N.pl3        1 UNL1     -0.3170
     16 C         5.851899   3.161826   -3.736552 C.3        1 UNL1     0.1275
     17 N         5.215826   4.117066   -2.756423 N.2        1 UNL1     -0.2557
     18 C         4.998763   3.221062   -5.00002 C.3        1 UNL1     0.0016
     19 C         5.753311   2.536963   -6.128848 C.3        1 UNL1     0.0026
     20 N         6.023402   1.158809   -5.743137 N.3        1 UNL1     -0.3018
     21 C         6.78703   0.99826   -4.503999 C.3        1 UNL1     0.0026
     22 C         6.008617   1.688791   -3.382779 C.3        1 UNL1     0.0016
     23 C         6.467566   0.339294   -6.852983 C.3        1 UNL1     0.0012
     24 C         5.311866   0.089998   -7.834801 C.3        1 UNL1     -0.0339
     25 C         5.347403   1.082214   -9.008811 C.3        1 UNL1     -0.0615
     26 C         5.340707   -1.349473   -8.318403 C.3        1 UNL1     -0.0615
     27 C         6.342815   8.935589   -2.232976 C.ar        1 UNL1     0.1347
     28 C         5.384008   9.205178   -1.272735 C.ar        1 UNL1     0.0342
     29 C         4.682438   8.070772   -0.812207 C.ar        1 UNL1     0.1435
     30 C         4.901631   6.788753   -1.317777 C.ar        1 UNL1     0.0774
     31 O         3.641658   8.184395   0.041535 O.3        1 UNL1     -0.4436
     32 C         2.91982   6.951658   -0.100528 C.3        1 UNL1     0.3143
     33 C         3.93289   5.95848   -0.632975 C.2        1 UNL1     0.2504
     34 C         4.937414   10.571302   -0.831874 C.3        1 UNL1     -0.0327
     35 O         2.559451   6.51492   1.215772 O.2        1 UNL1     -0.4528
     36 C         -0.683889   4.58309   0.819701 C.3        1 UNL1     0.0854
     37 C         -0.989539   3.322587   -0.077647 C.3        1 UNL1     0.0236
     38 C         -1.590036   2.061562   0.710364 C.3        1 UNL1     0.1131
     39 C         -0.86402   1.530482   2.011566 C.3        1 UNL1     0.0200
     40 C         0.797167   1.384763   2.052327 C.3        1 UNL1     0.0661
     41 C         1.756176   0.615896   0.883243 C.3        1 UNL1     0.0091
     42 C         3.463664   0.978307   0.318847 C.3        1 UNL1     0.0661
     43 C         7.49697   7.460166   -3.893911 C.2        1 UNL1     0.2131
     44 O         7.896773   8.358241   -4.612491 O.2        1 UNL1     -0.2851
     45 O         7.155078   9.970637   -2.691608 O.3        1 UNL1     -0.5056
     46 O         3.948785   4.754937   -0.502263 O.2        1 UNL1     -0.2836
     47 C         5.563986   1.319006   1.928315 C.3        1 UNL1     -0.0566
     48 O         3.912101   -0.432849   0.400453 O.3        1 UNL1     -0.3909
     49 C         0.921663   0.383455   -0.356537 C.3        1 UNL1     -0.0577
     50 O         1.397587   2.602543   2.445046 O.3        1 UNL1     -0.3910
     51 O         -0.807659   4.393361   2.211144 O.3        1 UNL1     -0.3753
     52 C         0.054619   3.162063   -1.230433 C.3        1 UNL1     -0.0564
     53 O         -2.192966   1.022684   -0.189377 O.3        1 UNL1     -0.4608
     54 C         -2.42743   -0.284059   0.150296 C.2        1 UNL1     0.3042
     55 O         -1.858544   -1.283228   -0.287731 O.2        1 UNL1     -0.2512
     56 C         -3.467205   -0.449645   1.221821 C.3        1 UNL1     0.0332
     57 C         -1.58467   2.199492   3.273019 C.3        1 UNL1     -0.0567
     58 C         1.844386   7.196912   -1.18442 C.3        1 UNL1     0.0210
     59 C         -1.120551   5.572365   2.951356 C.3        1 UNL1     0.0372
     60 C         0.645117   5.212044   0.588788 C.2        1 UNL1     -0.0208
     61 C         1.558312   5.647142   1.457989 C.2        1 UNL1     0.0882
     62 H         4.691526   2.732815   0.577658 H        1 UNL1     0.0365
     63 H         6.337783   3.608434   -0.255022 H        1 UNL1     0.0576
     64 H         8.343104   1.489446   -1.247673 H        1 UNL1     0.0615
     65 H         8.276106   4.606849   -1.435205 H        1 UNL1     0.0622
     66 H         -1.428536   5.329711   0.509694 H        1 UNL1     0.0645
     67 H         -1.855205   3.632071   -0.688713 H        1 UNL1     0.0362
     68 H         -2.536972   2.498524   1.062355 H        1 UNL1     0.0741
     69 H         -1.195602   0.519411   2.207007 H        1 UNL1     0.0359
     70 H         0.909091   0.724383   2.933481 H        1 UNL1     0.0600
     71 H         1.799755   -0.405291   1.310131 H        1 UNL1     0.0348
     72 H         3.358079   1.466483   1.298567 H        1 UNL1     0.0602
     73 H         0.762775   5.409324   -0.447786 H        1 UNL1     0.0628
     74 H         1.54101   5.436436   2.527821 H        1 UNL1     0.1022
     75 H         10.953099   2.252808   -3.436386 H        1 UNL1     0.0279
     76 H         10.798359   3.443951   -4.665424 H        1 UNL1     0.0279
     77 H         11.91608   3.660645   -3.25864 H        1 UNL1     0.0279
     78 H         9.065495   4.804496   -5.02276 H        1 UNL1     0.1553
     79 H         7.786817   3.332847   -4.668561 H        1 UNL1     0.1484
     80 H         4.037478   2.730224   -4.805663 H        1 UNL1     0.0317
     81 H         4.772199   4.257851   -5.270926 H        1 UNL1     0.0317
     82 H         6.683969   3.068174   -6.377048 H        1 UNL1     0.0428
     83 H         5.127941   2.592207   -7.020426 H        1 UNL1     0.0428
     84 H         6.907316   -0.044716   -4.1949 H        1 UNL1     0.0428
     85 H         7.817137   1.366186   -4.608062 H        1 UNL1     0.0428
     86 H         6.525241   1.438338   -2.474836 H        1 UNL1     0.0317
     87 H         5.029152   1.211255   -3.257461 H        1 UNL1     0.0317
     88 H         7.263555   0.881025   -7.380452 H        1 UNL1     0.0429
     89 H         6.900147   -0.606538   -6.5022 H        1 UNL1     0.0429
     90 H         4.35898   0.209155   -7.30563 H        1 UNL1     0.0308
     91 H         6.300433   1.031354   -9.543835 H        1 UNL1     0.0233
     92 H         4.532314   0.882352   -9.708307 H        1 UNL1     0.0233
     93 H         5.221467   2.121325   -8.681361 H        1 UNL1     0.0233
     94 H         4.645994   -1.480836   -9.155036 H        1 UNL1     0.0233
     95 H         6.344098   -1.60547   -8.670021 H        1 UNL1     0.0233
     96 H         5.057902   -2.043693   -7.522131 H        1 UNL1     0.0233
     97 H         4.137962   10.521717   -0.09863 H        1 UNL1     0.0280
     98 H         5.747924   11.137759   -0.354951 H        1 UNL1     0.0280
     99 H         4.572386   11.139283   -1.703223 H        1 UNL1     0.0280
     100 H         6.688059   10.721832   -3.012889 H        1 UNL1     0.2922
     101 H         4.698114   0.896857   2.437935 H        1 UNL1     0.0236
     102 H         6.026092   2.120902   2.503122 H        1 UNL1     0.0236
     103 H         6.310972   0.507708   1.926976 H        1 UNL1     0.0236
     104 H         4.331526   -0.559003   1.274031 H        1 UNL1     0.2098
     105 H         0.70865   1.282381   -0.929571 H        1 UNL1     0.0234
     106 H         1.291012   -0.40433   -1.01297 H        1 UNL1     0.0234
     107 H         0.0   -0.0   0.0 H        1 UNL1     0.0234
     108 H         1.204326   3.259176   1.748446 H        1 UNL1     0.2098
     109 H         1.080989   3.060859   -0.850913 H        1 UNL1     0.0234
     110 H         -0.171416   2.327395   -1.902729 H        1 UNL1     0.0234
     111 H         0.066948   4.039667   -1.890437 H        1 UNL1     0.0234
     112 H         -3.590648   -1.510518   1.459845 H        1 UNL1     0.0342
     113 H         -3.230006   0.126177   2.115134 H        1 UNL1     0.0342
     114 H         -4.42468   -0.078537   0.831072 H        1 UNL1     0.0342
     115 H         -2.65431   1.951326   3.311387 H        1 UNL1     0.0234
     116 H         -1.147998   1.919657   4.233778 H        1 UNL1     0.0234
     117 H         -1.623166   3.301353   3.224433 H        1 UNL1     0.0234
     118 H         0.942844   7.68249   -0.771572 H        1 UNL1     0.0309
     119 H         2.213174   7.786181   -2.029972 H        1 UNL1     0.0309
     120 H         1.456716   6.265042   -1.610374 H        1 UNL1     0.0309
     121 H         -0.299463   6.27545   2.814082 H        1 UNL1     0.0524
     122 H         -2.040388   6.061513   2.589872 H        1 UNL1     0.0524
     123 H         -1.238279   5.334605   4.004781 H        1 UNL1     0.0524
@<TRIPOS>BOND
     1     1     2    1
     2     1    42    1
     3     2     3    2
     4     3     4    1
     5     4     5    2
     6     5     7    1
     7     6    75    1
     8     6    76    1
     9     6    77    1
    10     7     9   am
    11     9    10    1
    12    10    11    2
    13    10    43    1
    14    11    14    1
    15    11    15    1
    16    12    13   ar
    17    12    27   ar
    18    12    43    1
    19    13    14    1
    20    13    30   ar
    21    14    17    2
    22    15    16    1
    23    16    17    1
    24    16    18    1
    25    16    22    1
    26    18    19    1
    27    19    20    1
    28    20    21    1
    29    21    22    1
    30    23    24    1
    31    23    88    1
    32    23    89    1
    33    24    25    1
    34    24    26    1
    35    24    90    1
    36    25    91    1
    37    25    92    1
    38    25    93    1
    39    26    94    1
    40    26    95    1
    41    26    96    1
    42    27    28   ar
    43    28    29   ar
    44    29    30   ar
    45    29    31    1
    46    30    33    1
    47    31    32    1
    48    32    33    1
    49    32    35    1
    50    34    97    1
    51    34    98    1
    52    34    99    1
    53    35    61    1
    54    36    37    1
    55    36    60    1
    56    37    38    1
    57    38    39    1
    58    39    40    1
    59    40    41    1
    60    41    42    1
    61    45   100    1
    62    47   101    1
    63    47   102    1
    64    47   103    1
    65    48   104    1
    66    49   105    1
    67    49   106    1
    68    49   107    1
    69    50   108    1
    70    51    59    1
    71    52   109    1
    72    52   110    1
    73    52   111    1
    74    53    54    1
    75    54    55    2
    76    54    56    1
    77    56   112    1
    78    56   113    1
    79    56   114    1
    80    57   115    1
    81    57   116    1
    82    57   117    1
    83    58   118    1
    84    58   119    1
    85    58   120    1
    86    59   121    1
    87    59   122    1
    88    59   123    1
    89    60    61    2
    90     1    47    1
    91     1    62    1
    92     2    63    1
    93     3    64    1
    94     4    65    1
    95     5     6    1
    96     7     8    2
    97     9    78    1
    98    15    79    1
    99    18    80    1
   100    18    81    1
   101    19    82    1
   102    19    83    1
   103    20    23    1
   104    21    84    1
   105    21    85    1
   106    22    86    1
   107    22    87    1
   108    27    45    1
   109    28    34    1
   110    32    58    1
   111    33    46    2
   112    36    51    1
   113    36    66    1
   114    37    52    1
   115    37    67    1
   116    38    53    1
   117    38    68    1
   118    42    48    1
   119    42    72    1
   120    43    44    2
   121    60    73    1
   122    61    74    1
   123    39    69    1
   124    39    57    1
   125    40    70    1
   126    40    50    1
   127    41    71    1
   128    41    49    1
