@<TRIPOS>MOLECULE
*****
 123 128 0 0 0
SMALL
GASTEIGER

@<TRIPOS>ATOM
     1 C         5.164225   1.765191   0.462767 C.3        1 UNL1     0.0009
     2 C         6.593725   2.575588   -0.395617 C.2        1 UNL1     -0.0787
     3 C         7.872272   2.481257   -1.068273 C.2        1 UNL1     -0.0649
     4 C         8.741706   3.718932   -1.828932 C.2        1 UNL1     -0.0542
     5 C         9.755692   4.014532   -2.773142 C.2        1 UNL1     0.0115
     6 C         10.881136   3.392407   -3.644726 C.3        1 UNL1     -0.0348
     7 C         9.84306   5.497915   -3.380537 C.2        1 UNL1     0.2441
     8 O         10.66639   6.322256   -3.007556 O.2        1 UNL1     -0.2702
     9 N         9.085842   5.702198   -4.547174 N.am        1 UNL1     -0.2772
     10 C         7.803639   6.084923   -4.226554 C.2        1 UNL1     0.1049
     11 C         6.962516   5.110931   -3.92978 C.2        1 UNL1     0.0801
     12 C         6.507873   7.687864   -2.809195 C.ar        1 UNL1     0.0753
     13 C         5.754815   6.557686   -2.357299 C.ar        1 UNL1     0.0305
     14 C         5.872352   5.252183   -3.002975 C.2        1 UNL1     0.0924
     15 N         7.088457   3.782302   -4.089191 N.pl3        1 UNL1     -0.3170
     16 C         5.822217   3.179223   -3.767967 C.3        1 UNL1     0.1275
     17 N         5.188143   4.132717   -2.784848 N.2        1 UNL1     -0.2557
     18 C         4.962335   3.23526   -5.027 C.3        1 UNL1     0.0016
     19 C         5.713225   2.55324   -6.15952 C.3        1 UNL1     0.0026
     20 N         5.9898   1.176101   -5.77478 N.3        1 UNL1     -0.3018
     21 C         6.76038   1.018452   -4.539578 C.3        1 UNL1     0.0026
     22 C         5.985563   1.706824   -3.414545 C.3        1 UNL1     0.0016
     23 C         6.430852   0.357663   -6.886659 C.3        1 UNL1     0.0012
     24 C         5.27088   0.10428   -7.862374 C.3        1 UNL1     -0.0339
     25 C         5.356435   1.026839   -9.089413 C.3        1 UNL1     -0.0615
     26 C         5.239371   -1.359866   -8.264944 C.3        1 UNL1     -0.0615
     27 C         6.302155   8.955055   -2.268802 C.ar        1 UNL1     0.1347
     28 C         5.347482   9.221846   -1.303674 C.ar        1 UNL1     0.0342
     29 C         4.652009   8.08532   -0.839143 C.ar        1 UNL1     0.1435
     30 C         4.872741   6.80385   -1.345437 C.ar        1 UNL1     0.0774
     31 O         3.615319   8.195843   0.019964 O.3        1 UNL1     -0.4436
     32 C         2.896767   6.960718   -0.117951 C.3        1 UNL1     0.3143
     33 C         3.91028   5.970661   -0.655343 C.2        1 UNL1     0.2504
     34 C         4.898743   10.586659   -0.860932 C.3        1 UNL1     -0.0327
     35 O         2.544669   6.523251   1.200344 O.2        1 UNL1     -0.4528
     36 C         -0.694383   4.580752   0.82176 C.3        1 UNL1     0.0854
     37 C         -1.000592   3.318961   -0.073585 C.3        1 UNL1     0.0236
     38 C         -1.592877   2.056253   0.71794 C.3        1 UNL1     0.1131
     39 C         -0.858382   1.527973   2.015517 C.3        1 UNL1     0.0200
     40 C         0.803459   1.387671   2.047685 C.3        1 UNL1     0.0661
     41 C         1.758873   0.621536   0.873875 C.3        1 UNL1     0.0091
     42 C         3.462216   0.989308   0.300491 C.3        1 UNL1     0.0661
     43 C         7.452453   7.482837   -3.935247 C.2        1 UNL1     0.2131
     44 O         7.84559   8.381965   -4.656182 O.2        1 UNL1     -0.2851
     45 O         7.10865   9.992585   -2.731982 O.3        1 UNL1     -0.5056
     46 O         3.930771   4.76722   -0.524332 O.2        1 UNL1     -0.2836
     47 C         5.569758   1.337374   1.898906 C.3        1 UNL1     -0.0566
     48 O         3.915661   -0.420355   0.380214 O.3        1 UNL1     -0.3909
     49 C         0.918687   0.385966   -0.361475 C.3        1 UNL1     -0.0577
     50 O         1.401948   2.607529   2.436889 O.3        1 UNL1     -0.3910
     51 O         -0.810299   4.391087   2.213889 O.3        1 UNL1     -0.3753
     52 C         0.038075   3.161446   -1.231735 C.3        1 UNL1     -0.0564
     53 O         -2.197095   1.015119   -0.178323 O.3        1 UNL1     -0.4608
     54 C         -2.394368   -0.30031   0.151313 C.2        1 UNL1     0.3042
     55 O         -1.747766   -1.272555   -0.23661 O.2        1 UNL1     -0.2512
     56 C         -3.502431   -0.512062   1.143317 C.3        1 UNL1     0.0332
     57 C         -1.574637   2.195059   3.280488 C.3        1 UNL1     -0.0567
     58 C         1.814919   7.20211   -1.196313 C.3        1 UNL1     0.0210
     59 C         -1.123173   5.569316   2.955342 C.3        1 UNL1     0.0372
     60 C         0.63135   5.213947   0.583738 C.2        1 UNL1     -0.0208
     61 C         1.547631   5.652303   1.44804 C.2        1 UNL1     0.0882
     62 H         4.685692   2.747886   0.552355 H        1 UNL1     0.0365
     63 H         6.32474   3.628575   -0.289153 H        1 UNL1     0.0576
     64 H         8.331756   1.515787   -1.291545 H        1 UNL1     0.0615
     65 H         8.253641   4.632893   -1.479718 H        1 UNL1     0.0622
     66 H         -1.443058   5.324843   0.515393 H        1 UNL1     0.0645
     67 H         -1.870426   3.625423   -0.680239 H        1 UNL1     0.0362
     68 H         -2.539388   2.490252   1.074711 H        1 UNL1     0.0741
     69 H         -1.185652   0.515895   2.213002 H        1 UNL1     0.0359
     70 H         0.922111   0.727954   2.928455 H        1 UNL1     0.0600
     71 H         1.807994   -0.399362   1.300855 H        1 UNL1     0.0348
     72 H         3.360138   1.477466   1.280592 H        1 UNL1     0.0602
     73 H         0.742975   5.41126   -0.453496 H        1 UNL1     0.0628
     74 H         1.536578   5.441901   2.518015 H        1 UNL1     0.1022
     75 H         10.878417   2.279511   -3.552587 H        1 UNL1     0.0279
     76 H         10.799359   3.538691   -4.719427 H        1 UNL1     0.0279
     77 H         11.888348   3.637899   -3.27736 H        1 UNL1     0.0279
     78 H         9.02372   4.831903   -5.071392 H        1 UNL1     0.1553
     79 H         7.751696   3.356223   -4.71008 H        1 UNL1     0.1484
     80 H         4.003675   2.741364   -4.827491 H        1 UNL1     0.0317
     81 H         4.730992   4.271215   -5.297054 H        1 UNL1     0.0317
     82 H         6.640847   3.087391   -6.412724 H        1 UNL1     0.0428
     83 H         5.083051   2.606152   -7.04785 H        1 UNL1     0.0428
     84 H         6.885663   -0.024025   -4.230777 H        1 UNL1     0.0428
     85 H         7.788728   1.389691   -4.649114 H        1 UNL1     0.0428
     86 H         6.507714   1.458356   -2.509222 H        1 UNL1     0.0317
     87 H         5.008322   1.226147   -3.283983 H        1 UNL1     0.0317
     88 H         7.222321   0.901802   -7.418433 H        1 UNL1     0.0429
     89 H         6.868327   -0.58664   -6.53783 H        1 UNL1     0.0429
     90 H         4.321167   0.294087   -7.34834 H        1 UNL1     0.0308
     91 H         6.309315   0.904825   -9.613086 H        1 UNL1     0.0233
     92 H         4.53732   0.823762   -9.783257 H        1 UNL1     0.0233
     93 H         5.274289   2.087115   -8.82127 H        1 UNL1     0.0233
     94 H         4.580179   -1.500057   -9.128454 H        1 UNL1     0.0233
     95 H         6.242182   -1.690903   -8.549101 H        1 UNL1     0.0233
     96 H         4.877673   -1.990627   -7.448069 H        1 UNL1     0.0233
     97 H         4.054734   10.536904   -0.17946 H        1 UNL1     0.0280
     98 H         5.688119   11.127436   -0.322692 H        1 UNL1     0.0280
     99 H         4.598398   11.17967   -1.740264 H        1 UNL1     0.0280
     100 H         6.641091   10.769742   -2.983052 H        1 UNL1     0.2922
     101 H         4.687911   1.005451   2.446473 H        1 UNL1     0.0236
     102 H         6.118864   2.109239   2.437135 H        1 UNL1     0.0236
     103 H         6.242799   0.46376   1.896272 H        1 UNL1     0.0236
     104 H         4.252501   -0.571116   1.285079 H        1 UNL1     0.2098
     105 H         0.700089   1.283949   -0.933883 H        1 UNL1     0.0234
     106 H         1.286972   -0.40109   -1.019379 H        1 UNL1     0.0234
     107 H         0.0   -0.0   0.0 H        1 UNL1     0.0234
     108 H         1.251433   3.247828   1.714995 H        1 UNL1     0.2098
     109 H         1.066728   3.063708   -0.857525 H        1 UNL1     0.0234
     110 H         -0.188736   2.325823   -1.902579 H        1 UNL1     0.0234
     111 H         0.044116   4.038865   -1.892073 H        1 UNL1     0.0234
     112 H         -3.59312   -1.576913   1.37829 H        1 UNL1     0.0342
     113 H         -3.360193   0.076967   2.048114 H        1 UNL1     0.0342
     114 H         -4.444431   -0.188039   0.67984 H        1 UNL1     0.0342
     115 H         -2.661811   2.036978   3.264654 H        1 UNL1     0.0234
     116 H         -1.20428   1.8339   4.24197 H        1 UNL1     0.0234
     117 H         -1.519636   3.297275   3.286601 H        1 UNL1     0.0234
     118 H         0.912731   7.682067   -0.778336 H        1 UNL1     0.0309
     119 H         2.176527   7.794884   -2.042517 H        1 UNL1     0.0309
     120 H         1.430273   6.268928   -1.622136 H        1 UNL1     0.0309
     121 H         -0.744715   5.431884   3.967883 H        1 UNL1     0.0524
     122 H         -0.637495   6.467284   2.53844 H        1 UNL1     0.0524
     123 H         -2.19785   5.726716   2.975009 H        1 UNL1     0.0524
@<TRIPOS>BOND
     1     1     2    1
     2     1    42    1
     3     2     3    2
     4     3     4    1
     5     4     5    2
     6     5     7    1
     7     6    75    1
     8     6    76    1
     9     6    77    1
    10     7     9   am
    11     9    10    1
    12    10    11    2
    13    10    43    1
    14    11    14    1
    15    11    15    1
    16    12    13   ar
    17    12    27   ar
    18    12    43    1
    19    13    14    1
    20    13    30   ar
    21    14    17    2
    22    15    16    1
    23    16    17    1
    24    16    18    1
    25    16    22    1
    26    18    19    1
    27    19    20    1
    28    20    21    1
    29    21    22    1
    30    23    24    1
    31    23    88    1
    32    23    89    1
    33    24    25    1
    34    24    26    1
    35    24    90    1
    36    25    91    1
    37    25    92    1
    38    25    93    1
    39    26    94    1
    40    26    95    1
    41    26    96    1
    42    27    28   ar
    43    28    29   ar
    44    29    30   ar
    45    29    31    1
    46    30    33    1
    47    31    32    1
    48    32    33    1
    49    32    35    1
    50    34    97    1
    51    34    98    1
    52    34    99    1
    53    35    61    1
    54    36    37    1
    55    36    60    1
    56    37    38    1
    57    38    39    1
    58    39    40    1
    59    40    41    1
    60    41    42    1
    61    45   100    1
    62    47   101    1
    63    47   102    1
    64    47   103    1
    65    48   104    1
    66    49   105    1
    67    49   106    1
    68    49   107    1
    69    50   108    1
    70    51    59    1
    71    52   109    1
    72    52   110    1
    73    52   111    1
    74    53    54    1
    75    54    55    2
    76    54    56    1
    77    56   112    1
    78    56   113    1
    79    56   114    1
    80    57   115    1
    81    57   116    1
    82    57   117    1
    83    58   118    1
    84    58   119    1
    85    58   120    1
    86    59   121    1
    87    59   122    1
    88    59   123    1
    89    60    61    2
    90     1    47    1
    91     1    62    1
    92     2    63    1
    93     3    64    1
    94     4    65    1
    95     5     6    1
    96     7     8    2
    97     9    78    1
    98    15    79    1
    99    18    80    1
   100    18    81    1
   101    19    82    1
   102    19    83    1
   103    20    23    1
   104    21    84    1
   105    21    85    1
   106    22    86    1
   107    22    87    1
   108    27    45    1
   109    28    34    1
   110    32    58    1
   111    33    46    2
   112    36    51    1
   113    36    66    1
   114    37    52    1
   115    37    67    1
   116    38    53    1
   117    38    68    1
   118    42    48    1
   119    42    72    1
   120    43    44    2
   121    60    73    1
   122    61    74    1
   123    39    69    1
   124    39    57    1
   125    40    70    1
   126    40    50    1
   127    41    71    1
   128    41    49    1
