@<TRIPOS>MOLECULE
*****
 123 128 0 0 0
SMALL
GASTEIGER

@<TRIPOS>ATOM
     1 C         -3.929151   0.817802   1.042741 C.3        1 UNL1     0.0009
     2 C         -5.464938   0.220379   0.193341 C.2        1 UNL1     -0.0787
     3 C         -6.566174   0.449468   -0.718165 C.2        1 UNL1     -0.0649
     4 C         -7.733968   -0.660204   -1.238974 C.2        1 UNL1     -0.0542
     5 C         -8.696822   -0.949905   -2.237003 C.2        1 UNL1     0.0115
     6 C         -9.455617   -0.36319   -3.459018 C.3        1 UNL1     -0.0348
     7 C         -9.231878   -2.456023   -2.38638 C.2        1 UNL1     0.2441
     8 O         -10.318551   -2.821538   -1.959688 O.2        1 UNL1     -0.2702
     9 N         -8.487289   -3.261067   -3.265949 N.am        1 UNL1     -0.2772
     10 C         -7.449356   -3.869305   -2.59807 C.2        1 UNL1     0.1049
     11 C         -6.356029   -3.145716   -2.439081 C.2        1 UNL1     0.0801
     12 C         -6.917873   -5.193848   -0.543697 C.ar        1 UNL1     0.0753
     13 C         -5.867481   -4.251816   -0.303149 C.ar        1 UNL1     0.0305
     14 C         -5.470267   -3.274108   -1.313773 C.2        1 UNL1     0.0924
     15 N         -6.003263   -1.978069   -3.003602 N.pl3        1 UNL1     -0.3170
     16 C         -4.642043   -1.701926   -2.627995 C.3        1 UNL1     0.1275
     17 N         -4.466506   -2.401606   -1.302341 N.2        1 UNL1     -0.2557
     18 C         -3.742154   -2.436584   -3.617023 C.3        1 UNL1     0.0016
     19 C         -4.106365   -1.996029   -5.025871 C.3        1 UNL1     0.0026
     20 N         -3.927596   -0.554139   -5.125999 N.3        1 UNL1     -0.3018
     21 C         -4.706955   0.236752   -4.171296 C.3        1 UNL1     0.0026
     22 C         -4.321873   -0.219069   -2.76281 C.3        1 UNL1     0.0016
     23 C         -3.957246   -0.075849   -6.493845 C.3        1 UNL1     0.0012
     24 C         -2.6966   -0.525438   -7.249092 C.3        1 UNL1     -0.0339
     25 C         -3.050685   -1.394068   -8.467354 C.3        1 UNL1     -0.0615
     26 C         -1.868563   0.684129   -7.646686 C.3        1 UNL1     -0.0615
     27 C         -7.209867   -6.199413   0.374833 C.ar        1 UNL1     0.1347
     28 C         -6.49735   -6.386839   1.545833 C.ar        1 UNL1     0.0342
     29 C         -5.499769   -5.417886   1.784843 C.ar        1 UNL1     0.1435
     30 C         -5.220032   -4.383472   0.890999 C.ar        1 UNL1     0.0774
     31 O         -4.647252   -5.526377   2.827172 O.3        1 UNL1     -0.4436
     32 C         -3.539097   -4.682941   2.478632 C.3        1 UNL1     0.3143
     33 C         -4.097608   -3.686207   1.483243 C.2        1 UNL1     0.2504
     34 C         -6.586722   -7.584415   2.450224 C.3        1 UNL1     -0.0327
     35 O         -3.180558   -3.943819   3.652685 O.2        1 UNL1     -0.4528
     36 C         0.548553   -3.292564   3.373966 C.3        1 UNL1     0.0854
     37 C         1.349753   -2.564039   2.227295 C.3        1 UNL1     0.0236
     38 C         2.264228   -1.34   2.714333 C.3        1 UNL1     0.1131
     39 C         1.640065   -0.207654   3.625643 C.3        1 UNL1     0.0200
     40 C         0.131753   0.416911   3.283079 C.3        1 UNL1     0.0661
     41 C         -0.391005   0.978445   1.77013 C.3        1 UNL1     0.0091
     42 C         -2.057001   0.954164   1.00249 C.3        1 UNL1     0.0661
     43 C         -7.627412   -5.119703   -1.844972 C.2        1 UNL1     0.2131
     44 O         -8.237427   -6.053681   -2.333135 O.2        1 UNL1     -0.2851
     45 O         -8.277388   -7.046956   0.085859 O.3        1 UNL1     -0.5056
     46 O         -3.715817   -2.561591   1.248028 O.2        1 UNL1     -0.2836
     47 C         -4.292957   1.811389   2.178704 C.3        1 UNL1     -0.0566
     48 O         -2.00448   2.372394   0.572395 O.3        1 UNL1     -0.3909
     49 C         0.588365   0.517857   0.713632 C.3        1 UNL1     -0.0577
     50 O         -0.881938   -0.361969   3.885988 O.3        1 UNL1     -0.3910
     51 O         0.594515   -2.67978   4.64275 O.3        1 UNL1     -0.3753
     52 C         0.538896   -2.515646   0.891212 C.3        1 UNL1     -0.0564
     53 O         3.268378   -0.896222   1.691069 O.3        1 UNL1     -0.4608
     54 C         4.077242   0.204963   1.796232 C.2        1 UNL1     0.3042
     55 O         4.282855   1.065069   0.94079 O.2        1 UNL1     -0.2512
     56 C         4.714422   0.356225   3.148206 C.3        1 UNL1     0.0332
     57 C         1.964893   -0.579263   5.147013 C.3        1 UNL1     -0.0567
     58 C         -2.511857   -5.586203   1.757226 C.3        1 UNL1     0.0210
     59 C         1.386205   -3.365891   5.611432 C.3        1 UNL1     0.0372
     60 C         -0.886234   -3.549544   3.073123 C.2        1 UNL1     -0.0208
     61 C         -1.972345   -3.374816   3.827165 C.2        1 UNL1     0.0882
     62 H         -3.827214   -0.168793   1.510662 H        1 UNL1     0.0365
     63 H         -5.584553   -0.761558   0.655902 H        1 UNL1     0.0576
     64 H         -6.643974   1.369231   -1.302195 H        1 UNL1     0.0615
     65 H         -7.623309   -1.499201   -0.546643 H        1 UNL1     0.0622
     66 H         1.021153   -4.281527   3.455502 H        1 UNL1     0.0645
     67 H         2.113278   -3.301206   1.923692 H        1 UNL1     0.0362
     68 H         2.967447   -1.882928   3.364129 H        1 UNL1     0.0741
     69 H         2.275197   0.666851   3.578148 H        1 UNL1     0.0359
     70 H         0.166555   1.342535   3.888941 H        1 UNL1     0.0600
     71 H         -0.125716   2.050167   1.859521 H        1 UNL1     0.0348
     72 H         -2.21883   0.824931   2.082502 H        1 UNL1     0.0602
     73 H         -0.963307   -4.04865   2.139205 H        1 UNL1     0.0628
     74 H         -1.987794   -2.823246   4.767786 H        1 UNL1     0.1022
     75 H         -9.861121   0.649333   -3.219442 H        1 UNL1     0.0279
     76 H         -8.864152   -0.173413   -4.351891 H        1 UNL1     0.0279
     77 H         -10.377226   -0.916067   -3.692823 H        1 UNL1     0.0279
     78 H         -8.082584   -2.682752   -3.999327 H        1 UNL1     0.1553
     79 H         -6.420208   -1.616067   -3.841483 H        1 UNL1     0.1484
     80 H         -2.694784   -2.209222   -3.384456 H        1 UNL1     0.0317
     81 H         -3.856636   -3.521447   -3.518952 H        1 UNL1     0.0317
     82 H         -5.133616   -2.286849   -5.290616 H        1 UNL1     0.0428
     83 H         -3.454082   -2.533207   -5.715085 H        1 UNL1     0.0428
     84 H         -4.494638   1.30956   -4.213911 H        1 UNL1     0.0428
     85 H         -5.785622   0.170167   -4.369691 H        1 UNL1     0.0428
     86 H         -4.807628   0.466659   -2.093626 H        1 UNL1     0.0317
     87 H         -3.255355   -0.032617   -2.587107 H        1 UNL1     0.0317
     88 H         -4.835139   -0.511167   -6.988917 H        1 UNL1     0.0429
     89 H         -4.074121   1.01485   -6.532454 H        1 UNL1     0.0429
     90 H         -2.06352   -1.11287   -6.573556 H        1 UNL1     0.0308
     91 H         -4.071065   -1.782416   -8.395854 H        1 UNL1     0.0233
     92 H         -2.948712   -0.821914   -9.392476 H        1 UNL1     0.0233
     93 H         -2.38675   -2.261042   -8.569243 H        1 UNL1     0.0233
     94 H         -2.308051   1.170854   -8.52406 H        1 UNL1     0.0233
     95 H         -1.853345   1.411314   -6.830027 H        1 UNL1     0.0233
     96 H         -0.839758   0.401847   -7.887196 H        1 UNL1     0.0233
     97 H         -5.627176   -8.079222   2.567141 H        1 UNL1     0.0280
     98 H         -6.911054   -7.31435   3.463698 H        1 UNL1     0.0280
     99 H         -7.301452   -8.311203   2.030658 H        1 UNL1     0.0280
     100 H         -9.070756   -6.606379   -0.163305 H        1 UNL1     0.2922
     101 H         -4.191465   1.318079   3.145141 H        1 UNL1     0.0236
     102 H         -5.27513   2.26571   2.052563 H        1 UNL1     0.0236
     103 H         -3.593318   2.662643   2.224165 H        1 UNL1     0.0236
     104 H         -1.426771   2.42084   -0.214291 H        1 UNL1     0.2098
     105 H         1.104315   1.323707   0.197674 H        1 UNL1     0.0234
     106 H         1.302674   -0.232956   1.051226 H        1 UNL1     0.0234
     107 H         0.0   -0.0   0.0 H        1 UNL1     0.0234
     108 H         -1.689924   -0.252999   3.348352 H        1 UNL1     0.2098
     109 H         -0.305118   -3.219459   0.891123 H        1 UNL1     0.0234
     110 H         0.178735   -1.511579   0.642461 H        1 UNL1     0.0234
     111 H         1.160174   -2.796463   0.03034 H        1 UNL1     0.0234
     112 H         5.335394   1.256967   3.168288 H        1 UNL1     0.0342
     113 H         3.976774   0.372269   3.949119 H        1 UNL1     0.0342
     114 H         5.370365   -0.508867   3.317081 H        1 UNL1     0.0342
     115 H         2.378308   -1.592938   5.240502 H        1 UNL1     0.0234
     116 H         2.662827   0.106027   5.632105 H        1 UNL1     0.0234
     117 H         1.065991   -0.656278   5.782611 H        1 UNL1     0.0234
     118 H         -1.603674   -5.747758   2.363946 H        1 UNL1     0.0309
     119 H         -2.924308   -6.55694   1.464385 H        1 UNL1     0.0309
     120 H         -2.124481   -5.131794   0.838772 H        1 UNL1     0.0309
     121 H         0.746582   -4.100996   6.099141 H        1 UNL1     0.0524
     122 H         2.228547   -3.910612   5.153418 H        1 UNL1     0.0524
     123 H         1.776308   -2.664189   6.34323 H        1 UNL1     0.0524
@<TRIPOS>BOND
     1     1     2    1
     2     1    42    1
     3     2     3    2
     4     3     4    1
     5     4     5    2
     6     5     7    1
     7     6    75    1
     8     6    76    1
     9     6    77    1
    10     7     9   am
    11     9    10    1
    12    10    11    2
    13    10    43    1
    14    11    14    1
    15    11    15    1
    16    12    13   ar
    17    12    27   ar
    18    12    43    1
    19    13    14    1
    20    13    30   ar
    21    14    17    2
    22    15    16    1
    23    16    17    1
    24    16    18    1
    25    16    22    1
    26    18    19    1
    27    19    20    1
    28    20    21    1
    29    21    22    1
    30    23    24    1
    31    23    88    1
    32    23    89    1
    33    24    25    1
    34    24    26    1
    35    24    90    1
    36    25    91    1
    37    25    92    1
    38    25    93    1
    39    26    94    1
    40    26    95    1
    41    26    96    1
    42    27    28   ar
    43    28    29   ar
    44    29    30   ar
    45    29    31    1
    46    30    33    1
    47    31    32    1
    48    32    33    1
    49    32    35    1
    50    34    97    1
    51    34    98    1
    52    34    99    1
    53    35    61    1
    54    36    37    1
    55    36    60    1
    56    37    38    1
    57    38    39    1
    58    39    40    1
    59    40    41    1
    60    41    42    1
    61    45   100    1
    62    47   101    1
    63    47   102    1
    64    47   103    1
    65    48   104    1
    66    49   105    1
    67    49   106    1
    68    49   107    1
    69    50   108    1
    70    51    59    1
    71    52   109    1
    72    52   110    1
    73    52   111    1
    74    53    54    1
    75    54    55    2
    76    54    56    1
    77    56   112    1
    78    56   113    1
    79    56   114    1
    80    57   115    1
    81    57   116    1
    82    57   117    1
    83    58   118    1
    84    58   119    1
    85    58   120    1
    86    59   121    1
    87    59   122    1
    88    59   123    1
    89    60    61    2
    90     1    47    1
    91     1    62    1
    92     2    63    1
    93     3    64    1
    94     4    65    1
    95     5     6    1
    96     7     8    2
    97     9    78    1
    98    15    79    1
    99    18    80    1
   100    18    81    1
   101    19    82    1
   102    19    83    1
   103    20    23    1
   104    21    84    1
   105    21    85    1
   106    22    86    1
   107    22    87    1
   108    27    45    1
   109    28    34    1
   110    32    58    1
   111    33    46    2
   112    36    51    1
   113    36    66    1
   114    37    52    1
   115    37    67    1
   116    38    53    1
   117    38    68    1
   118    42    48    1
   119    42    72    1
   120    43    44    2
   121    60    73    1
   122    61    74    1
   123    39    69    1
   124    39    57    1
   125    40    70    1
   126    40    50    1
   127    41    71    1
   128    41    49    1
