@<TRIPOS>MOLECULE
*****
 123 128 0 0 0
SMALL
GASTEIGER

@<TRIPOS>ATOM
     1 C         5.171902   1.738653   0.477268 C.3        1 UNL1     0.0009
     2 C         6.608067   2.541368   -0.377201 C.2        1 UNL1     -0.0787
     3 C         7.888065   2.440209   -1.046093 C.2        1 UNL1     -0.0649
     4 C         8.766096   3.673121   -1.804609 C.2        1 UNL1     -0.0542
     5 C         9.784344   3.963162   -2.745951 C.2        1 UNL1     0.0115
     6 C         10.909098   3.33494   -3.614047 C.3        1 UNL1     -0.0348
     7 C         9.881145   5.44587   -3.353566 C.2        1 UNL1     0.2441
     8 O         10.707631   6.266074   -2.978449 O.2        1 UNL1     -0.2702
     9 N         9.128398   5.653668   -4.522473 N.am        1 UNL1     -0.2772
     10 C         7.847259   6.043117   -4.20572 C.2        1 UNL1     0.1049
     11 C         7.000255   5.073582   -3.911088 C.2        1 UNL1     0.0801
     12 C         6.555662   7.653206   -2.792664 C.ar        1 UNL1     0.0753
     13 C         5.795461   6.527085   -2.342604 C.ar        1 UNL1     0.0305
     14 C         5.908136   5.220775   -2.987515 C.2        1 UNL1     0.0924
     15 N         7.119795   3.744267   -4.069704 N.pl3        1 UNL1     -0.3170
     16 C         5.849526   3.147843   -3.751982 C.3        1 UNL1     0.1275
     17 N         5.217521   4.10493   -2.771025 N.2        1 UNL1     -0.2557
     18 C         4.993621   3.207897   -5.013538 C.3        1 UNL1     0.0016
     19 C         5.744278   2.521626   -6.143641 C.3        1 UNL1     0.0026
     20 N         6.012613   1.143207   -5.757653 N.3        1 UNL1     -0.3018
     21 C         6.778762   0.981996   -4.520157 C.3        1 UNL1     0.0026
     22 C         6.004233   1.674739   -3.397612 C.3        1 UNL1     0.0016
     23 C         6.452672   0.322127   -6.867977 C.3        1 UNL1     0.0012
     24 C         5.294258   0.07441   -7.846991 C.3        1 UNL1     -0.0339
     25 C         5.329011   1.065799   -9.021724 C.3        1 UNL1     -0.0615
     26 C         5.319241   -1.365425   -8.329723 C.3        1 UNL1     -0.0615
     27 C         6.354916   8.921625   -2.253282 C.ar        1 UNL1     0.1347
     28 C         5.398823   9.193668   -1.29103 C.ar        1 UNL1     0.0342
     29 C         4.696138   8.060904   -0.828164 C.ar        1 UNL1     0.1435
     30 C         4.911723   6.778142   -1.3334 C.ar        1 UNL1     0.0774
     31 O         3.657531   8.17707   0.027877 O.3        1 UNL1     -0.4436
     32 C         2.933014   6.945625   -0.111737 C.3        1 UNL1     0.3143
     33 C         3.942963   5.950166   -0.64585 C.2        1 UNL1     0.2504
     34 C         4.955851   10.560928   -0.850038 C.3        1 UNL1     -0.0327
     35 O         2.574817   6.510426   1.205666 O.2        1 UNL1     -0.4528
     36 C         -0.673107   4.584553   0.818256 C.3        1 UNL1     0.0854
     37 C         -0.983216   3.324059   -0.077573 C.3        1 UNL1     0.0236
     38 C         -1.584322   2.064694   0.712626 C.3        1 UNL1     0.1131
     39 C         -0.856354   1.533065   2.012512 C.3        1 UNL1     0.0200
     40 C         0.804641   1.384193   2.049575 C.3        1 UNL1     0.0661
     41 C         1.759504   0.612738   0.878804 C.3        1 UNL1     0.0091
     42 C         3.466389   0.971516   0.310276 C.3        1 UNL1     0.0661
     43 C         7.50245   7.442924   -3.915889 C.2        1 UNL1     0.2131
     44 O         7.902327   8.339768   -4.635963 O.2        1 UNL1     -0.2851
     45 O         7.168108   9.954819   -2.71444 O.3        1 UNL1     -0.5056
     46 O         3.956855   4.746679   -0.514393 O.2        1 UNL1     -0.2836
     47 C         5.57103   1.309232   1.914723 C.3        1 UNL1     -0.0566
     48 O         3.912311   -0.440443   0.391775 O.3        1 UNL1     -0.3909
     49 C         0.921719   0.381094   -0.358916 C.3        1 UNL1     -0.0577
     50 O         1.408285   2.601075   2.440131 O.3        1 UNL1     -0.3910
     51 O         -0.794061   4.395959   2.210101 O.3        1 UNL1     -0.3753
     52 C         0.057997   3.160792   -1.232635 C.3        1 UNL1     -0.0564
     53 O         -2.191292   1.026392   -0.185061 O.3        1 UNL1     -0.4608
     54 C         -2.427479   -0.279681   0.155996 C.2        1 UNL1     0.3042
     55 O         -1.861506   -1.280219   -0.28268 O.2        1 UNL1     -0.2512
     56 C         -3.465117   -0.442585   1.229998 C.3        1 UNL1     0.0332
     57 C         -1.572839   2.204267   3.275172 C.3        1 UNL1     -0.0567
     58 C         1.855577   7.192238   -1.193329 C.3        1 UNL1     0.0210
     59 C         -1.103006   5.576037   2.95026 C.3        1 UNL1     0.0372
     60 C         0.656568   5.210813   0.583901 C.2        1 UNL1     -0.0208
     61 C         1.572576   5.644723   1.450732 C.2        1 UNL1     0.0882
     62 H         4.698192   2.723837   0.565143 H        1 UNL1     0.0365
     63 H         6.344215   3.595766   -0.271862 H        1 UNL1     0.0576
     64 H         8.343206   1.472304   -1.267712 H        1 UNL1     0.0615
     65 H         8.281742   4.589708   -1.457115 H        1 UNL1     0.0622
     66 H         -1.417032   5.332397   0.509466 H        1 UNL1     0.0645
     67 H         -1.849683   3.634805   -0.686861 H        1 UNL1     0.0362
     68 H         -2.529615   2.503694   1.066494 H        1 UNL1     0.0741
     69 H         -1.189421   0.522757   2.209366 H        1 UNL1     0.0359
     70 H         0.917314   0.724169   2.930899 H        1 UNL1     0.0600
     71 H         1.802106   -0.408255   1.306255 H        1 UNL1     0.0348
     72 H         3.363976   1.460525   1.289917 H        1 UNL1     0.0602
     73 H         0.772235   5.407198   -0.453067 H        1 UNL1     0.0628
     74 H         1.557316   5.434741   2.520737 H        1 UNL1     0.1022
     75 H         10.93306   2.2263   -3.482227 H        1 UNL1     0.0279
     76 H         10.806387   3.440547   -4.691714 H        1 UNL1     0.0279
     77 H         11.916401   3.615628   -3.273083 H        1 UNL1     0.0279
     78 H         9.063311   4.783529   -5.046591 H        1 UNL1     0.1553
     79 H         7.782633   3.314559   -4.688518 H        1 UNL1     0.1484
     80 H         4.031845   2.719025   -4.816668 H        1 UNL1     0.0317
     81 H         4.768421   4.244942   -5.284599 H        1 UNL1     0.0317
     82 H         6.675381   3.050894   -6.39431 H        1 UNL1     0.0428
     83 H         5.11698   2.577492   -7.033824 H        1 UNL1     0.0428
     84 H         6.897758   -0.061009   -4.210656 H        1 UNL1     0.0428
     85 H         7.809329   1.347883   -4.626811 H        1 UNL1     0.0428
     86 H         6.522451   1.423883   -2.490688 H        1 UNL1     0.0317
     87 H         5.024146   1.19916   -3.269748 H        1 UNL1     0.0317
     88 H         7.248489   0.861993   -7.397614 H        1 UNL1     0.0429
     89 H         6.884244   -0.624304   -6.517568 H        1 UNL1     0.0429
     90 H         4.342813   0.195733   -7.315724 H        1 UNL1     0.0308
     91 H         6.280717   1.012769   -9.558889 H        1 UNL1     0.0233
     92 H         4.511945   0.867046   -9.719228 H        1 UNL1     0.0233
     93 H         5.205811   2.10536   -8.694663 H        1 UNL1     0.0233
     94 H         4.622369   -1.495997   -9.164682 H        1 UNL1     0.0233
     95 H         6.321335   -1.623568   -8.683465 H        1 UNL1     0.0233
     96 H         5.036929   -2.058588   -7.532357 H        1 UNL1     0.0233
     97 H         4.157982   10.513347   -0.114939 H        1 UNL1     0.0280
     98 H         5.76853   11.12614   -0.375334 H        1 UNL1     0.0280
     99 H         4.58992   11.129044   -1.72092 H        1 UNL1     0.0280
     100 H         6.701794   10.7067   -3.035141 H        1 UNL1     0.2922
     101 H         4.708627   0.877645   2.422316 H        1 UNL1     0.0236
     102 H         6.024902   2.114019   2.492045 H        1 UNL1     0.0236
     103 H         6.325652   0.505036   1.9122 H        1 UNL1     0.0236
     104 H         4.333489   -0.566836   1.264475 H        1 UNL1     0.2098
     105 H         0.709432   1.280002   -0.932249 H        1 UNL1     0.0234
     106 H         1.287851   -0.408074   -1.01549 H        1 UNL1     0.0234
     107 H         0.0   -0.0   0.0 H        1 UNL1     0.0234
     108 H         1.214689   3.257627   1.743547 H        1 UNL1     0.2098
     109 H         1.085035   3.057869   -0.855394 H        1 UNL1     0.0234
     110 H         -0.17117   2.326125   -1.903871 H        1 UNL1     0.0234
     111 H         0.070496   4.037945   -1.893236 H        1 UNL1     0.0234
     112 H         -3.590046   -1.503066   1.468993 H        1 UNL1     0.0342
     113 H         -3.224778   0.133358   2.122394 H        1 UNL1     0.0342
     114 H         -4.422772   -0.069897   0.841196 H        1 UNL1     0.0342
     115 H         -2.642861   1.958174   3.316143 H        1 UNL1     0.0234
     116 H         -1.134509   1.924217   4.235113 H        1 UNL1     0.0234
     117 H         -1.609338   3.306168   3.225959 H        1 UNL1     0.0234
     118 H         0.956224   7.68051   -0.778891 H        1 UNL1     0.0309
     119 H         2.223771   7.779604   -2.040463 H        1 UNL1     0.0309
     120 H         1.464602   6.26082   -1.617246 H        1 UNL1     0.0309
     121 H         -0.280891   6.27746   2.810654 H        1 UNL1     0.0524
     122 H         -2.022729   6.066712   2.590559 H        1 UNL1     0.0524
     123 H         -1.218782   5.339183   4.004105 H        1 UNL1     0.0524
@<TRIPOS>BOND
     1     1     2    1
     2     1    42    1
     3     2     3    2
     4     3     4    1
     5     4     5    2
     6     5     7    1
     7     6    75    1
     8     6    76    1
     9     6    77    1
    10     7     9   am
    11     9    10    1
    12    10    11    2
    13    10    43    1
    14    11    14    1
    15    11    15    1
    16    12    13   ar
    17    12    27   ar
    18    12    43    1
    19    13    14    1
    20    13    30   ar
    21    14    17    2
    22    15    16    1
    23    16    17    1
    24    16    18    1
    25    16    22    1
    26    18    19    1
    27    19    20    1
    28    20    21    1
    29    21    22    1
    30    23    24    1
    31    23    88    1
    32    23    89    1
    33    24    25    1
    34    24    26    1
    35    24    90    1
    36    25    91    1
    37    25    92    1
    38    25    93    1
    39    26    94    1
    40    26    95    1
    41    26    96    1
    42    27    28   ar
    43    28    29   ar
    44    29    30   ar
    45    29    31    1
    46    30    33    1
    47    31    32    1
    48    32    33    1
    49    32    35    1
    50    34    97    1
    51    34    98    1
    52    34    99    1
    53    35    61    1
    54    36    37    1
    55    36    60    1
    56    37    38    1
    57    38    39    1
    58    39    40    1
    59    40    41    1
    60    41    42    1
    61    45   100    1
    62    47   101    1
    63    47   102    1
    64    47   103    1
    65    48   104    1
    66    49   105    1
    67    49   106    1
    68    49   107    1
    69    50   108    1
    70    51    59    1
    71    52   109    1
    72    52   110    1
    73    52   111    1
    74    53    54    1
    75    54    55    2
    76    54    56    1
    77    56   112    1
    78    56   113    1
    79    56   114    1
    80    57   115    1
    81    57   116    1
    82    57   117    1
    83    58   118    1
    84    58   119    1
    85    58   120    1
    86    59   121    1
    87    59   122    1
    88    59   123    1
    89    60    61    2
    90     1    47    1
    91     1    62    1
    92     2    63    1
    93     3    64    1
    94     4    65    1
    95     5     6    1
    96     7     8    2
    97     9    78    1
    98    15    79    1
    99    18    80    1
   100    18    81    1
   101    19    82    1
   102    19    83    1
   103    20    23    1
   104    21    84    1
   105    21    85    1
   106    22    86    1
   107    22    87    1
   108    27    45    1
   109    28    34    1
   110    32    58    1
   111    33    46    2
   112    36    51    1
   113    36    66    1
   114    37    52    1
   115    37    67    1
   116    38    53    1
   117    38    68    1
   118    42    48    1
   119    42    72    1
   120    43    44    2
   121    60    73    1
   122    61    74    1
   123    39    69    1
   124    39    57    1
   125    40    70    1
   126    40    50    1
   127    41    71    1
   128    41    49    1
