@<TRIPOS>MOLECULE
*****
 123 128 0 0 0
SMALL
GASTEIGER

@<TRIPOS>ATOM
     1 C         -0.45045   -3.123251   -2.657994 C.3        1 UNL1     0.0009
     2 C         0.701608   -3.625791   -4.020805 C.2        1 UNL1     -0.0787
     3 C         1.089333   -3.589247   -5.415215 C.2        1 UNL1     -0.0649
     4 C         2.482671   -4.238014   -6.125192 C.2        1 UNL1     -0.0542
     5 C         3.342609   -4.190031   -7.25004 C.2        1 UNL1     0.0115
     6 C         3.504491   -3.615925   -8.684445 C.3        1 UNL1     -0.0348
     7 C         4.814576   -4.819232   -7.130003 C.2        1 UNL1     0.2441
     8 O         5.111551   -5.910956   -7.595266 O.2        1 UNL1     -0.2702
     9 N         5.803395   -3.92398   -6.686253 N.am        1 UNL1     -0.2772
     10 C         5.868816   -3.923472   -5.311829 C.2        1 UNL1     0.1049
     11 C         4.99029   -3.160092   -4.687598 C.2        1 UNL1     0.0801
     12 C         6.010132   -5.446081   -3.332176 C.ar        1 UNL1     0.0753
     13 C         4.909809   -4.71089   -2.786839 C.ar        1 UNL1     0.0305
     14 C         4.450867   -3.461285   -3.38926 C.2        1 UNL1     0.0924
     15 N         4.168736   -2.213792   -5.173493 N.pl3        1 UNL1     -0.3170
     16 C         3.541459   -1.56027   -4.055599 C.3        1 UNL1     0.1275
     17 N         3.523158   -2.606422   -2.967962 N.2        1 UNL1     -0.2557
     18 C         4.494013   -0.468697   -3.577255 C.3        1 UNL1     0.0016
     19 C         4.806955   0.450601   -4.747105 C.3        1 UNL1     0.0026
     20 N         3.560979   1.021449   -5.239756 N.3        1 UNL1     -0.3018
     21 C         2.555815   0.045654   -5.666182 C.3        1 UNL1     0.0026
     22 C         2.253129   -0.86436   -4.474482 C.3        1 UNL1     0.0016
     23 C         3.769526   2.130834   -6.148829 C.3        1 UNL1     0.0012
     24 C         4.699934   1.716553   -7.299685 C.3        1 UNL1     -0.0339
     25 C         3.922307   1.533428   -8.613389 C.3        1 UNL1     -0.0615
     26 C         5.823002   2.727763   -7.451179 C.3        1 UNL1     -0.0615
     27 C         6.518866   -6.569756   -2.685135 C.ar        1 UNL1     0.1347
     28 C         6.037629   -7.028872   -1.47201 C.ar        1 UNL1     0.0342
     29 C         4.922728   -6.318506   -0.978512 C.ar        1 UNL1     0.1435
     30 C         4.379401   -5.212863   -1.633927 C.ar        1 UNL1     0.0774
     31 O         4.408893   -6.574573   0.244357 O.3        1 UNL1     -0.4436
     32 C         3.654169   -5.398754   0.574078 C.3        1 UNL1     0.3143
     33 C         3.322038   -4.755045   -0.756914 C.2        1 UNL1     0.2504
     34 C         6.68916   -8.066365   -0.60068 C.3        1 UNL1     -0.0327
     35 O         2.415373   -5.834592   1.147386 O.2        1 UNL1     -0.4528
     36 C         1.384738   -3.116207   3.587932 C.3        1 UNL1     0.0854
     37 C         1.14252   -1.580184   3.324333 C.3        1 UNL1     0.0236
     38 C         -0.295782   -1.035143   3.778165 C.3        1 UNL1     0.1131
     39 C         -1.604804   -1.790527   3.311128 C.3        1 UNL1     0.0200
     40 C         -1.758664   -2.319759   1.736746 C.3        1 UNL1     0.0661
     41 C         -1.479361   -1.391514   0.344639 C.3        1 UNL1     0.0091
     42 C         -0.846259   -1.882351   -1.305713 C.3        1 UNL1     0.0661
     43 C         6.649496   -4.920122   -4.563777 C.2        1 UNL1     0.2131
     44 O         7.786227   -5.195715   -4.902345 O.2        1 UNL1     -0.2851
     45 O         7.561147   -7.255031   -3.306012 O.3        1 UNL1     -0.5056
     46 O         2.383641   -4.042812   -1.036177 O.2        1 UNL1     -0.2836
     47 C         -1.781181   -3.916581   -2.756796 C.3        1 UNL1     -0.0566
     48 O         -1.901352   -1.1558   -2.05272 O.3        1 UNL1     -0.3909
     49 C         -0.748741   -0.127463   0.739432 C.3        1 UNL1     -0.0577
     50 O         -1.191225   -3.605022   1.582356 O.3        1 UNL1     -0.3910
     51 O         0.262695   -3.851265   4.021686 O.3        1 UNL1     -0.3753
     52 C         1.836248   -1.099248   2.008129 C.3        1 UNL1     -0.0564
     53 O         -0.376639   0.46191   3.846144 O.3        1 UNL1     -0.4608
     54 C         -1.523275   1.188563   4.033577 C.2        1 UNL1     0.3042
     55 O         -2.614764   1.01412   3.493152 O.2        1 UNL1     -0.2512
     56 C         -1.387248   2.270972   5.06634 C.3        1 UNL1     0.0332
     57 C         -2.02321   -2.798387   4.480457 C.3        1 UNL1     -0.0567
     58 C         4.612529   -4.468003   1.353038 C.3        1 UNL1     0.0210
     59 C         0.443015   -5.266571   4.037809 C.3        1 UNL1     0.0372
     60 C         1.972751   -3.865447   2.444236 C.2        1 UNL1     -0.0208
     61 C         1.647164   -5.051756   1.929057 C.2        1 UNL1     0.0882
     62 H         0.184889   -3.665136   -1.947068 H        1 UNL1     0.0365
     63 H         1.370176   -4.301565   -3.483389 H        1 UNL1     0.0576
     64 H         0.561638   -2.96518   -6.139913 H        1 UNL1     0.0615
     65 H         2.8851   -4.899054   -5.35282 H        1 UNL1     0.0622
     66 H         2.13979   -3.143569   4.386176 H        1 UNL1     0.0645
     67 H         1.80656   -1.076038   4.04783 H        1 UNL1     0.0362
     68 H         -0.22667   -1.214031   4.862022 H        1 UNL1     0.0741
     69 H         -2.449413   -1.123406   3.420638 H        1 UNL1     0.0359
     70 H         -2.851148   -2.49348   1.699877 H        1 UNL1     0.0600
     71 H         -2.500915   -1.003888   0.162619 H        1 UNL1     0.0348
     72 H         -1.199436   -2.808148   -0.828764 H        1 UNL1     0.0602
     73 H         2.847566   -3.364375   2.111258 H        1 UNL1     0.0628
     74 H         0.737886   -5.601774   2.173863 H        1 UNL1     0.1022
     75 H         2.810171   -4.129035   -9.392732 H        1 UNL1     0.0279
     76 H         3.245166   -2.568312   -8.819824 H        1 UNL1     0.0279
     77 H         4.482061   -3.852651   -9.129438 H        1 UNL1     0.0279
     78 H         5.566968   -2.979153   -6.982026 H        1 UNL1     0.1553
     79 H         4.298767   -1.766069   -6.06207 H        1 UNL1     0.1484
     80 H         4.024023   0.079392   -2.751741 H        1 UNL1     0.0317
     81 H         5.417966   -0.902255   -3.179777 H        1 UNL1     0.0317
     82 H         5.344038   -0.078297   -5.54818 H        1 UNL1     0.0428
     83 H         5.48889   1.220338   -4.38445 H        1 UNL1     0.0428
     84 H         1.601769   0.496845   -5.956069 H        1 UNL1     0.0428
     85 H         2.874287   -0.504086   -6.562663 H        1 UNL1     0.0428
     86 H         1.423941   -1.475225   -4.779902 H        1 UNL1     0.0317
     87 H         1.841871   -0.273611   -3.646847 H        1 UNL1     0.0317
     88 H         2.796418   2.414153   -6.570832 H        1 UNL1     0.0429
     89 H         4.159771   3.010716   -5.621296 H        1 UNL1     0.0429
     90 H         5.184621   0.766465   -7.04547 H        1 UNL1     0.0308
     91 H         2.848069   1.436899   -8.429552 H        1 UNL1     0.0233
     92 H         4.096696   2.376332   -9.286227 H        1 UNL1     0.0233
     93 H         4.233269   0.635559   -9.161083 H        1 UNL1     0.0233
     94 H         5.459508   3.620917   -7.970778 H        1 UNL1     0.0233
     95 H         6.18478   3.034769   -6.465873 H        1 UNL1     0.0233
     96 H         6.659326   2.312946   -8.020791 H        1 UNL1     0.0233
     97 H         5.958902   -8.664788   -0.064171 H        1 UNL1     0.0280
     98 H         7.290808   -8.776831   -1.1825 H        1 UNL1     0.0280
     99 H         7.340423   -7.571519   0.138292 H        1 UNL1     0.0280
     100 H         7.889626   -6.844394   -4.086461 H        1 UNL1     0.2922
     101 H         -1.730287   -4.800535   -2.121429 H        1 UNL1     0.0236
     102 H         -2.057373   -4.164517   -3.781115 H        1 UNL1     0.0236
     103 H         -2.636762   -3.340404   -2.366675 H        1 UNL1     0.0236
     104 H         -1.46811   -0.682324   -2.789667 H        1 UNL1     0.2098
     105 H         -1.367641   0.766268   0.743761 H        1 UNL1     0.0234
     106 H         -0.18299   -0.199695   1.668214 H        1 UNL1     0.0234
     107 H         0.0   0.0   0.0 H        1 UNL1     0.0234
     108 H         -1.256867   -3.839413   0.636565 H        1 UNL1     0.2098
     109 H         2.546556   -0.280132   2.187638 H        1 UNL1     0.0234
     110 H         2.338642   -1.907739   1.466201 H        1 UNL1     0.0234
     111 H         1.107271   -0.707672   1.286183 H        1 UNL1     0.0234
     112 H         -1.564557   1.857885   6.06397 H        1 UNL1     0.0342
     113 H         -0.418943   2.766557   5.015103 H        1 UNL1     0.0342
     114 H         -2.15944   3.028353   4.873319 H        1 UNL1     0.0342
     115 H         -1.536672   -2.544229   5.432231 H        1 UNL1     0.0234
     116 H         -3.098611   -2.844231   4.663379 H        1 UNL1     0.0234
     117 H         -1.66014   -3.828749   4.324009 H        1 UNL1     0.0234
     118 H         5.170345   -5.009584   2.136962 H        1 UNL1     0.0309
     119 H         5.322544   -3.943515   0.705742 H        1 UNL1     0.0309
     120 H         4.080956   -3.690596   1.912659 H        1 UNL1     0.0309
     121 H         0.269271   -5.632608   3.026283 H        1 UNL1     0.0524
     122 H         1.46848   -5.554441   4.32345 H        1 UNL1     0.0524
     123 H         -0.25776   -5.726896   4.728539 H        1 UNL1     0.0524
@<TRIPOS>BOND
     1     1     2    1
     2     1    42    1
     3     2     3    2
     4     3     4    1
     5     4     5    2
     6     5     7    1
     7     6    75    1
     8     6    76    1
     9     6    77    1
    10     7     9   am
    11     9    10    1
    12    10    11    2
    13    10    43    1
    14    11    14    1
    15    11    15    1
    16    12    13   ar
    17    12    27   ar
    18    12    43    1
    19    13    14    1
    20    13    30   ar
    21    14    17    2
    22    15    16    1
    23    16    17    1
    24    16    18    1
    25    16    22    1
    26    18    19    1
    27    19    20    1
    28    20    21    1
    29    21    22    1
    30    23    24    1
    31    23    88    1
    32    23    89    1
    33    24    25    1
    34    24    26    1
    35    24    90    1
    36    25    91    1
    37    25    92    1
    38    25    93    1
    39    26    94    1
    40    26    95    1
    41    26    96    1
    42    27    28   ar
    43    28    29   ar
    44    29    30   ar
    45    29    31    1
    46    30    33    1
    47    31    32    1
    48    32    33    1
    49    32    35    1
    50    34    97    1
    51    34    98    1
    52    34    99    1
    53    35    61    1
    54    36    37    1
    55    36    60    1
    56    37    38    1
    57    38    39    1
    58    39    40    1
    59    40    41    1
    60    41    42    1
    61    45   100    1
    62    47   101    1
    63    47   102    1
    64    47   103    1
    65    48   104    1
    66    49   105    1
    67    49   106    1
    68    49   107    1
    69    50   108    1
    70    51    59    1
    71    52   109    1
    72    52   110    1
    73    52   111    1
    74    53    54    1
    75    54    55    2
    76    54    56    1
    77    56   112    1
    78    56   113    1
    79    56   114    1
    80    57   115    1
    81    57   116    1
    82    57   117    1
    83    58   118    1
    84    58   119    1
    85    58   120    1
    86    59   121    1
    87    59   122    1
    88    59   123    1
    89    60    61    2
    90     1    47    1
    91     1    62    1
    92     2    63    1
    93     3    64    1
    94     4    65    1
    95     5     6    1
    96     7     8    2
    97     9    78    1
    98    15    79    1
    99    18    80    1
   100    18    81    1
   101    19    82    1
   102    19    83    1
   103    20    23    1
   104    21    84    1
   105    21    85    1
   106    22    86    1
   107    22    87    1
   108    27    45    1
   109    28    34    1
   110    32    58    1
   111    33    46    2
   112    36    51    1
   113    36    66    1
   114    37    52    1
   115    37    67    1
   116    38    53    1
   117    38    68    1
   118    42    48    1
   119    42    72    1
   120    43    44    2
   121    60    73    1
   122    61    74    1
   123    39    69    1
   124    39    57    1
   125    40    70    1
   126    40    50    1
   127    41    71    1
   128    41    49    1
