@<TRIPOS>MOLECULE
*****
 123 128 0 0 0
SMALL
GASTEIGER

@<TRIPOS>ATOM
     1 C         2.486551   3.699518   2.351749 C.3        1 UNL1     0.0009
     2 C         2.652479   5.537439   2.174123 C.2        1 UNL1     -0.0787
     3 C         3.463597   6.704573   1.898565 C.2        1 UNL1     -0.0649
     4 C         2.957041   8.313748   1.756033 C.2        1 UNL1     -0.0542
     5 C         3.288738   9.594918   1.250406 C.2        1 UNL1     0.0115
     6 C         4.427784   10.438771   0.614945 C.3        1 UNL1     -0.0348
     7 C         2.126278   10.68956   1.084772 C.2        1 UNL1     0.2441
     8 O         1.961985   11.610256   1.873349 O.2        1 UNL1     -0.2702
     9 N         1.475694   10.673861   -0.16128 N.am        1 UNL1     -0.2772
     10 C         0.418777   9.793066   -0.140097 C.2        1 UNL1     0.1049
     11 C         0.714736   8.523567   -0.352233 C.2        1 UNL1     0.0801
     12 C         -1.593242   9.140785   1.195433 C.ar        1 UNL1     0.0753
     13 C         -1.114352   7.794496   1.113111 C.ar        1 UNL1     0.0305
     14 C         -0.014405   7.426639   0.224376 C.2        1 UNL1     0.0924
     15 N         1.854029   7.964498   -0.79493 N.pl3        1 UNL1     -0.3170
     16 C         1.600415   6.565351   -1.014749 C.3        1 UNL1     0.1275
     17 N         0.48905   6.226886   -0.051405 N.2        1 UNL1     -0.2557
     18 C         1.005435   6.427871   -2.41289 C.3        1 UNL1     0.0016
     19 C         1.962513   7.057072   -3.412739 C.3        1 UNL1     0.0026
     20 N         3.247673   6.378103   -3.321122 N.3        1 UNL1     -0.3018
     21 C         3.870836   6.402832   -1.996197 C.3        1 UNL1     0.0026
     22 C         2.894236   5.761898   -1.008598 C.3        1 UNL1     0.0016
     23 C         4.131838   6.693003   -4.425538 C.3        1 UNL1     0.0012
     24 C         4.290218   8.214614   -4.571731 C.3        1 UNL1     -0.0339
     25 C         4.450226   8.624386   -6.045007 C.3        1 UNL1     -0.0615
     26 C         3.117992   8.92542   -3.917956 C.3        1 UNL1     -0.0615
     27 C         -2.717955   9.46178   1.951808 C.ar        1 UNL1     0.1347
     28 C         -3.466732   8.519701   2.634354 C.ar        1 UNL1     0.0342
     29 C         -2.948227   7.208508   2.578772 C.ar        1 UNL1     0.1435
     30 C         -1.802024   6.878149   1.854684 C.ar        1 UNL1     0.0774
     31 O         -3.623158   6.161051   3.100603 O.3        1 UNL1     -0.4436
     32 C         -3.058431   5.008793   2.456974 C.3        1 UNL1     0.3143
     33 C         -1.678546   5.443372   2.006117 C.2        1 UNL1     0.2504
     34 C         -4.817093   8.747546   3.254605 C.3        1 UNL1     -0.0327
     35 O         -2.871913   4.006857   3.464241 O.2        1 UNL1     -0.4528
     36 C         -3.237577   0.669705   1.692859 C.3        1 UNL1     0.0854
     37 C         -2.431788   0.101618   0.461801 C.3        1 UNL1     0.0236
     38 C         -1.739994   -1.324276   0.706732 C.3        1 UNL1     0.1131
     39 C         -0.837719   -1.549748   1.986315 C.3        1 UNL1     0.0200
     40 C         0.260168   -0.387284   2.461455 C.3        1 UNL1     0.0661
     41 C         1.404728   0.366258   1.461572 C.3        1 UNL1     0.0091
     42 C         2.09844   2.06367   1.515966 C.3        1 UNL1     0.0661
     43 C         -0.905389   10.169742   0.376674 C.2        1 UNL1     0.2131
     44 O         -1.420023   11.223432   0.048609 O.2        1 UNL1     -0.2851
     45 O         -3.090968   10.802741   2.016016 O.3        1 UNL1     -0.5056
     46 O         -0.693085   4.761749   1.83259 O.2        1 UNL1     -0.2836
     47 C         3.117658   3.227859   3.689367 C.3        1 UNL1     -0.0566
     48 O         3.504625   1.61637   1.368713 O.3        1 UNL1     -0.3909
     49 C         1.056997   0.077763   0.018191 C.3        1 UNL1     -0.0577
     50 O         -0.355208   0.57079   3.298791 O.3        1 UNL1     -0.3910
     51 O         -3.108386   -0.049404   2.898522 O.3        1 UNL1     -0.3753
     52 C         -1.727531   1.239122   -0.347555 C.3        1 UNL1     -0.0564
     53 O         -1.288351   -1.997536   -0.556227 O.3        1 UNL1     -0.4608
     54 C         -0.145666   -2.740921   -0.69615 C.2        1 UNL1     0.3042
     55 O         0.910045   -2.395362   -1.225208 O.2        1 UNL1     -0.2512
     56 C         -0.232291   -4.101465   -0.065175 C.3        1 UNL1     0.0332
     57 C         -1.757976   -2.211342   3.114852 C.3        1 UNL1     -0.0567
     58 C         -3.92823   4.735239   1.207916 C.3        1 UNL1     0.0210
     59 C         -2.947892   0.758149   4.06384 C.3        1 UNL1     0.0372
     60 C         -2.970297   2.098132   2.014291 C.2        1 UNL1     -0.0208
     61 C         -2.752828   2.694162   3.187406 C.2        1 UNL1     0.0882
     62 H         1.414817   3.833888   2.541595 H        1 UNL1     0.0365
     63 H         1.648748   5.860823   2.457699 H        1 UNL1     0.0576
     64 H         4.505852   6.616023   1.58397 H        1 UNL1     0.0615
     65 H         1.943422   8.305158   2.165893 H        1 UNL1     0.0622
     66 H         -4.289929   0.623262   1.379097 H        1 UNL1     0.0645
     67 H         -3.213189   -0.157007   -0.273784 H        1 UNL1     0.0362
     68 H         -2.638287   -1.938726   0.87118 H        1 UNL1     0.0741
     69 H         -0.210089   -2.415377   1.821468 H        1 UNL1     0.0359
     70 H         0.890185   -0.988062   3.144979 H        1 UNL1     0.0600
     71 H         2.269729   -0.308323   1.615428 H        1 UNL1     0.0348
     72 H         1.676653   1.876319   2.51412 H        1 UNL1     0.0602
     73 H         -3.096694   2.683035   1.137273 H        1 UNL1     0.0628
     74 H         -2.555289   2.165414   4.120488 H        1 UNL1     0.1022
     75 H         4.218038   11.529633   0.729231 H        1 UNL1     0.0279
     76 H         5.413005   10.341206   1.065378 H        1 UNL1     0.0279
     77 H         4.470514   10.339727   -0.479616 H        1 UNL1     0.0279
     78 H         2.122754   10.358657   -0.881029 H        1 UNL1     0.1553
     79 H         2.569686   8.470645   -1.28338 H        1 UNL1     0.1484
     80 H         0.842054   5.365154   -2.629004 H        1 UNL1     0.0317
     81 H         0.02551   6.913735   -2.470644 H        1 UNL1     0.0317
     82 H         2.073363   8.138527   -3.245168 H        1 UNL1     0.0428
     83 H         1.518051   6.949606   -4.402665 H        1 UNL1     0.0428
     84 H         4.794477   5.818927   -1.934926 H        1 UNL1     0.0428
     85 H         4.17716   7.417765   -1.707416 H        1 UNL1     0.0428
     86 H         3.432769   5.676469   -0.083033 H        1 UNL1     0.0317
     87 H         2.706976   4.718556   -1.290501 H        1 UNL1     0.0317
     88 H         5.116521   6.2583   -4.209378 H        1 UNL1     0.0429
     89 H         3.778582   6.239977   -5.36082 H        1 UNL1     0.0429
     90 H         5.181444   8.537562   -4.0207 H        1 UNL1     0.0308
     91 H         3.713602   8.122657   -6.679637 H        1 UNL1     0.0233
     92 H         4.344434   9.705799   -6.158861 H        1 UNL1     0.0233
     93 H         5.439662   8.370236   -6.44408 H        1 UNL1     0.0233
     94 H         3.007969   9.933014   -4.333269 H        1 UNL1     0.0233
     95 H         2.192234   8.377149   -4.113747 H        1 UNL1     0.0233
     96 H         3.255804   9.010587   -2.836419 H        1 UNL1     0.0233
     97 H         -4.745365   9.255267   4.211843 H        1 UNL1     0.0280
     98 H         -5.459579   9.378851   2.626973 H        1 UNL1     0.0280
     99 H         -5.318206   7.778744   3.413995 H        1 UNL1     0.0280
     100 H         -3.403998   11.161357   1.20421 H        1 UNL1     0.2922
     101 H         2.330011   2.996883   4.406249 H        1 UNL1     0.0236
     102 H         3.843945   3.932703   4.09271 H        1 UNL1     0.0236
     103 H         3.676301   2.28408   3.573638 H        1 UNL1     0.0236
     104 H         3.488674   0.699924   1.029829 H        1 UNL1     0.2098
     105 H         1.345014   0.861129   -0.678368 H        1 UNL1     0.0234
     106 H         1.392393   -0.893341   -0.34567 H        1 UNL1     0.0234
     107 H         0.0   -0.0   0.0 H        1 UNL1     0.0234
     108 H         -0.803347   0.083453   4.016733 H        1 UNL1     0.2098
     109 H         -2.384631   2.105835   -0.504853 H        1 UNL1     0.0234
     110 H         -0.786516   1.570069   0.104891 H        1 UNL1     0.0234
     111 H         -1.436082   0.901104   -1.350923 H        1 UNL1     0.0234
     112 H         0.715734   -4.632495   -0.19402 H        1 UNL1     0.0342
     113 H         -0.510573   -4.048305   0.986289 H        1 UNL1     0.0342
     114 H         -1.012029   -4.672835   -0.587393 H        1 UNL1     0.0342
     115 H         -1.461211   -3.247483   3.32823 H        1 UNL1     0.0234
     116 H         -1.758483   -1.668245   4.062003 H        1 UNL1     0.0234
     117 H         -2.806966   -2.350366   2.801431 H        1 UNL1     0.0234
     118 H         -4.525387   3.81249   1.312531 H        1 UNL1     0.0309
     119 H         -4.594773   5.566793   0.958034 H        1 UNL1     0.0309
     120 H         -3.328228   4.547431   0.310791 H        1 UNL1     0.0309
     121 H         -2.416895   0.163371   4.806563 H        1 UNL1     0.0524
     122 H         -2.344631   1.660212   3.867893 H        1 UNL1     0.0524
     123 H         -3.917985   1.059509   4.448803 H        1 UNL1     0.0524
@<TRIPOS>BOND
     1     1     2    1
     2     1    42    1
     3     2     3    2
     4     3     4    1
     5     4     5    2
     6     5     7    1
     7     6    75    1
     8     6    76    1
     9     6    77    1
    10     7     9   am
    11     9    10    1
    12    10    11    2
    13    10    43    1
    14    11    14    1
    15    11    15    1
    16    12    13   ar
    17    12    27   ar
    18    12    43    1
    19    13    14    1
    20    13    30   ar
    21    14    17    2
    22    15    16    1
    23    16    17    1
    24    16    18    1
    25    16    22    1
    26    18    19    1
    27    19    20    1
    28    20    21    1
    29    21    22    1
    30    23    24    1
    31    23    88    1
    32    23    89    1
    33    24    25    1
    34    24    26    1
    35    24    90    1
    36    25    91    1
    37    25    92    1
    38    25    93    1
    39    26    94    1
    40    26    95    1
    41    26    96    1
    42    27    28   ar
    43    28    29   ar
    44    29    30   ar
    45    29    31    1
    46    30    33    1
    47    31    32    1
    48    32    33    1
    49    32    35    1
    50    34    97    1
    51    34    98    1
    52    34    99    1
    53    35    61    1
    54    36    37    1
    55    36    60    1
    56    37    38    1
    57    38    39    1
    58    39    40    1
    59    40    41    1
    60    41    42    1
    61    45   100    1
    62    47   101    1
    63    47   102    1
    64    47   103    1
    65    48   104    1
    66    49   105    1
    67    49   106    1
    68    49   107    1
    69    50   108    1
    70    51    59    1
    71    52   109    1
    72    52   110    1
    73    52   111    1
    74    53    54    1
    75    54    55    2
    76    54    56    1
    77    56   112    1
    78    56   113    1
    79    56   114    1
    80    57   115    1
    81    57   116    1
    82    57   117    1
    83    58   118    1
    84    58   119    1
    85    58   120    1
    86    59   121    1
    87    59   122    1
    88    59   123    1
    89    60    61    2
    90     1    47    1
    91     1    62    1
    92     2    63    1
    93     3    64    1
    94     4    65    1
    95     5     6    1
    96     7     8    2
    97     9    78    1
    98    15    79    1
    99    18    80    1
   100    18    81    1
   101    19    82    1
   102    19    83    1
   103    20    23    1
   104    21    84    1
   105    21    85    1
   106    22    86    1
   107    22    87    1
   108    27    45    1
   109    28    34    1
   110    32    58    1
   111    33    46    2
   112    36    51    1
   113    36    66    1
   114    37    52    1
   115    37    67    1
   116    38    53    1
   117    38    68    1
   118    42    48    1
   119    42    72    1
   120    43    44    2
   121    60    73    1
   122    61    74    1
   123    39    69    1
   124    39    57    1
   125    40    70    1
   126    40    50    1
   127    41    71    1
   128    41    49    1
