@<TRIPOS>MOLECULE
*****
 123 128 0 0 0
SMALL
GASTEIGER

@<TRIPOS>ATOM
     1 C         5.167106   1.749265   0.490268 C.3        1 UNL1     0.0009
     2 C         6.603369   2.555998   -0.360241 C.2        1 UNL1     -0.0787
     3 C         7.885016   2.458322   -1.026489 C.2        1 UNL1     -0.0649
     4 C         8.762015   3.693945   -1.781781 C.2        1 UNL1     -0.0542
     5 C         9.781655   3.9872   -2.720617 C.2        1 UNL1     0.0115
     6 C         10.909622   3.362345   -3.586971 C.3        1 UNL1     -0.0348
     7 C         9.876565   5.470772   -3.326418 C.2        1 UNL1     0.2441
     8 O         10.700473   6.292346   -2.948637 O.2        1 UNL1     -0.2702
     9 N         9.125884   5.678218   -4.496715 N.am        1 UNL1     -0.2772
     10 C         7.843231   6.064564   -4.182297 C.2        1 UNL1     0.1049
     11 C         6.997688   5.092889   -3.890536 C.2        1 UNL1     0.0801
     12 C         6.545135   7.670332   -2.77028 C.ar        1 UNL1     0.0753
     13 C         5.786398   6.542088   -2.323074 C.ar        1 UNL1     0.0305
     14 C         5.903273   5.236726   -2.969154 C.2        1 UNL1     0.0924
     15 N         7.120434   3.764007   -4.050332 N.pl3        1 UNL1     -0.3170
     16 C         5.850773   3.164504   -3.735988 C.3        1 UNL1     0.1275
     17 N         5.214601   4.119162   -2.755357 N.2        1 UNL1     -0.2557
     18 C         4.997452   3.224086   -4.999315 C.3        1 UNL1     0.0016
     19 C         5.752013   2.54066   -6.128544 C.3        1 UNL1     0.0026
     20 N         6.022488   1.162404   -5.743471 N.3        1 UNL1     -0.3018
     21 C         6.786323   1.001499   -4.504505 C.3        1 UNL1     0.0026
     22 C         6.007894   1.691353   -3.382879 C.3        1 UNL1     0.0016
     23 C         6.4667   0.343481   -6.853733 C.3        1 UNL1     0.0012
     24 C         5.310928   0.094333   -7.835504 C.3        1 UNL1     -0.0339
     25 C         5.346067   1.08707   -9.009086 C.3        1 UNL1     -0.0615
     26 C         5.340051   -1.34492   -8.319738 C.3        1 UNL1     -0.0615
     27 C         6.340497   8.937729   -2.22996 C.ar        1 UNL1     0.1347
     28 C         5.381755   9.206667   -1.269472 C.ar        1 UNL1     0.0342
     29 C         4.680521   8.071891   -0.809344 C.ar        1 UNL1     0.1435
     30 C         4.899955   6.790146   -1.315503 C.ar        1 UNL1     0.0774
     31 O         3.639829   8.18489   0.044587 O.3        1 UNL1     -0.4436
     32 C         2.91827   6.952041   -0.097916 C.3        1 UNL1     0.3143
     33 C         3.931507   5.95934   -0.630933 C.2        1 UNL1     0.2504
     34 C         4.934891   10.572491   -0.827955 C.3        1 UNL1     -0.0327
     35 O         2.558183   6.514641   1.218242 O.2        1 UNL1     -0.4528
     36 C         -0.684743   4.582201   0.821766 C.3        1 UNL1     0.0854
     37 C         -0.99021   3.322017   -0.076091 C.3        1 UNL1     0.0236
     38 C         -1.590296   2.060502   0.711451 C.3        1 UNL1     0.1131
     39 C         -0.863977   1.52903   2.012323 C.3        1 UNL1     0.0200
     40 C         0.797251   1.383695   2.052796 C.3        1 UNL1     0.0661
     41 C         1.756288   0.61557   0.883248 C.3        1 UNL1     0.0091
     42 C         3.463613   0.978639   0.318779 C.3        1 UNL1     0.0661
     43 C         7.494784   7.46331   -3.891693 C.2        1 UNL1     0.2131
     44 O         7.894273   8.361794   -4.609936 O.2        1 UNL1     -0.2851
     45 O         7.152449   9.973173   -2.688249 O.3        1 UNL1     -0.5056
     46 O         3.947711   4.755744   -0.500748 O.2        1 UNL1     -0.2836
     47 C         5.564069   1.319143   1.928113 C.3        1 UNL1     -0.0566
     48 O         3.912401   -0.432444   0.39971 O.3        1 UNL1     -0.3909
     49 C         0.921664   0.383468   -0.356521 C.3        1 UNL1     -0.0577
     50 O         1.397431   2.601449   2.445966 O.3        1 UNL1     -0.3910
     51 O         -0.808279   4.391835   2.213143 O.3        1 UNL1     -0.3753
     52 C         0.053831   3.162247   -1.229088 C.3        1 UNL1     -0.0564
     53 O         -2.193097   1.021872   -0.188662 O.3        1 UNL1     -0.4608
     54 C         -2.4272   -0.285076   0.150473 C.2        1 UNL1     0.3042
     55 O         -1.858131   -1.283917   -0.288067 O.2        1 UNL1     -0.2512
     56 C         -3.46679   -0.45138   1.222065 C.3        1 UNL1     0.0332
     57 C         -1.584618   2.197316   3.274165 C.3        1 UNL1     -0.0567
     58 C         1.84263   7.197508   -1.181555 C.3        1 UNL1     0.0210
     59 C         -1.121356   5.570441   2.953911 C.3        1 UNL1     0.0372
     60 C         0.64408   5.211577   0.590948 C.2        1 UNL1     -0.0208
     61 C         1.557287   5.646516   1.460215 C.2        1 UNL1     0.0882
     62 H         4.691085   2.733331   0.578191 H        1 UNL1     0.0365
     63 H         6.337019   3.60971   -0.254329 H        1 UNL1     0.0576
     64 H         8.342717   1.49164   -1.248175 H        1 UNL1     0.0615
     65 H         8.274941   4.609109   -1.434338 H        1 UNL1     0.0622
     66 H         -1.429613   5.328777   0.512186 H        1 UNL1     0.0645
     67 H         -1.856033   3.631558   -0.686905 H        1 UNL1     0.0362
     68 H         -2.53729   2.497082   1.06376 H        1 UNL1     0.0741
     69 H         -1.195288   0.517794   2.207367 H        1 UNL1     0.0359
     70 H         0.909453   0.722958   2.933647 H        1 UNL1     0.0600
     71 H         1.800171   -0.405793   1.309684 H        1 UNL1     0.0348
     72 H         3.358042   1.466362   1.298727 H        1 UNL1     0.0602
     73 H         0.76155   5.409337   -0.445556 H        1 UNL1     0.0628
     74 H         1.540181   5.435339   2.529958 H        1 UNL1     0.1022
     75 H         10.95431   2.256999   -3.434498 H        1 UNL1     0.0279
     76 H         10.795563   3.445632   -4.665453 H        1 UNL1     0.0279
     77 H         11.914782   3.667028   -3.260593 H        1 UNL1     0.0279
     78 H         9.063798   4.808511   -5.021913 H        1 UNL1     0.1553
     79 H         7.785523   3.336399   -4.668184 H        1 UNL1     0.1484
     80 H         4.036312   2.732931   -4.805043 H        1 UNL1     0.0317
     81 H         4.7706   4.260937   -5.269738 H        1 UNL1     0.0317
     82 H         6.682509   3.072205   -6.376637 H        1 UNL1     0.0428
     83 H         5.126509   2.596143   -7.020013 H        1 UNL1     0.0428
     84 H         6.906902   -0.041583   -4.195878 H        1 UNL1     0.0428
     85 H         7.816326   1.369719   -4.608547 H        1 UNL1     0.0428
     86 H         6.524701   1.440628   -2.475115 H        1 UNL1     0.0317
     87 H         5.028561   1.213526   -3.257638 H        1 UNL1     0.0317
     88 H         7.262487   0.885634   -7.381074 H        1 UNL1     0.0429
     89 H         6.899558   -0.6024   -6.503422 H        1 UNL1     0.0429
     90 H         4.358084   0.21303   -7.306153 H        1 UNL1     0.0308
     91 H         6.299037   1.036674   -9.54426 H        1 UNL1     0.0233
     92 H         4.530932   0.887317   -9.70856 H        1 UNL1     0.0233
     93 H         5.219924   2.126008   -8.681166 H        1 UNL1     0.0233
     94 H         4.645257   -1.476085   -9.156334 H        1 UNL1     0.0233
     95 H         6.343456   -1.60052   -8.671604 H        1 UNL1     0.0233
     96 H         5.057522   -2.039555   -7.523731 H        1 UNL1     0.0233
     97 H         4.135549   10.522393   -0.094625 H        1 UNL1     0.0280
     98 H         5.745329   11.138936   -0.350893 H        1 UNL1     0.0280
     99 H         4.569608   11.140763   -1.699006 H        1 UNL1     0.0280
     100 H         6.685205   10.724395   -3.009139 H        1 UNL1     0.2922
     101 H         4.701511   0.885149   2.433383 H        1 UNL1     0.0236
     102 H         6.014965   2.124277   2.50728 H        1 UNL1     0.0236
     103 H         6.320427   0.516576   1.926343 H        1 UNL1     0.0236
     104 H         4.331975   -0.558878   1.273176 H        1 UNL1     0.2098
     105 H         0.708673   1.282538   -0.929337 H        1 UNL1     0.0234
     106 H         1.290905   -0.404197   -1.013159 H        1 UNL1     0.0234
     107 H         0.0   -0.0   0.0 H        1 UNL1     0.0234
     108 H         1.199121   3.259814   1.752427 H        1 UNL1     0.2098
     109 H         1.078829   3.048734   -0.849344 H        1 UNL1     0.0234
     110 H         -0.178762   2.335433   -1.90881 H        1 UNL1     0.0234
     111 H         0.074649   4.045369   -1.881475 H        1 UNL1     0.0234
     112 H         -3.59906   -1.513262   1.450665 H        1 UNL1     0.0342
     113 H         -3.223301   0.114246   2.120187 H        1 UNL1     0.0342
     114 H         -4.421591   -0.068484   0.836178 H        1 UNL1     0.0342
     115 H         -2.654193   1.948875   3.312569 H        1 UNL1     0.0234
     116 H         -1.147748   1.917167   4.234743 H        1 UNL1     0.0234
     117 H         -1.623386   3.299189   3.226065 H        1 UNL1     0.0234
     118 H         0.941649   7.684098   -0.768673 H        1 UNL1     0.0309
     119 H         2.211589   7.785937   -2.027619 H        1 UNL1     0.0309
     120 H         1.454022   6.265694   -1.606775 H        1 UNL1     0.0309
     121 H         -0.300457   6.273784   2.816833 H        1 UNL1     0.0524
     122 H         -2.04136   6.059525   2.592764 H        1 UNL1     0.0524
     123 H         -1.238885   5.332193   4.007248 H        1 UNL1     0.0524
@<TRIPOS>BOND
     1     1     2    1
     2     1    42    1
     3     2     3    2
     4     3     4    1
     5     4     5    2
     6     5     7    1
     7     6    75    1
     8     6    76    1
     9     6    77    1
    10     7     9   am
    11     9    10    1
    12    10    11    2
    13    10    43    1
    14    11    14    1
    15    11    15    1
    16    12    13   ar
    17    12    27   ar
    18    12    43    1
    19    13    14    1
    20    13    30   ar
    21    14    17    2
    22    15    16    1
    23    16    17    1
    24    16    18    1
    25    16    22    1
    26    18    19    1
    27    19    20    1
    28    20    21    1
    29    21    22    1
    30    23    24    1
    31    23    88    1
    32    23    89    1
    33    24    25    1
    34    24    26    1
    35    24    90    1
    36    25    91    1
    37    25    92    1
    38    25    93    1
    39    26    94    1
    40    26    95    1
    41    26    96    1
    42    27    28   ar
    43    28    29   ar
    44    29    30   ar
    45    29    31    1
    46    30    33    1
    47    31    32    1
    48    32    33    1
    49    32    35    1
    50    34    97    1
    51    34    98    1
    52    34    99    1
    53    35    61    1
    54    36    37    1
    55    36    60    1
    56    37    38    1
    57    38    39    1
    58    39    40    1
    59    40    41    1
    60    41    42    1
    61    45   100    1
    62    47   101    1
    63    47   102    1
    64    47   103    1
    65    48   104    1
    66    49   105    1
    67    49   106    1
    68    49   107    1
    69    50   108    1
    70    51    59    1
    71    52   109    1
    72    52   110    1
    73    52   111    1
    74    53    54    1
    75    54    55    2
    76    54    56    1
    77    56   112    1
    78    56   113    1
    79    56   114    1
    80    57   115    1
    81    57   116    1
    82    57   117    1
    83    58   118    1
    84    58   119    1
    85    58   120    1
    86    59   121    1
    87    59   122    1
    88    59   123    1
    89    60    61    2
    90     1    47    1
    91     1    62    1
    92     2    63    1
    93     3    64    1
    94     4    65    1
    95     5     6    1
    96     7     8    2
    97     9    78    1
    98    15    79    1
    99    18    80    1
   100    18    81    1
   101    19    82    1
   102    19    83    1
   103    20    23    1
   104    21    84    1
   105    21    85    1
   106    22    86    1
   107    22    87    1
   108    27    45    1
   109    28    34    1
   110    32    58    1
   111    33    46    2
   112    36    51    1
   113    36    66    1
   114    37    52    1
   115    37    67    1
   116    38    53    1
   117    38    68    1
   118    42    48    1
   119    42    72    1
   120    43    44    2
   121    60    73    1
   122    61    74    1
   123    39    69    1
   124    39    57    1
   125    40    70    1
   126    40    50    1
   127    41    71    1
   128    41    49    1
