@<TRIPOS>MOLECULE
*****
 123 128 0 0 0
SMALL
GASTEIGER

@<TRIPOS>ATOM
     1 C         -3.565163   0.206   -2.090065 C.3        1 UNL1     0.0009
     2 C         -4.492957   -1.195197   -2.872933 C.2        1 UNL1     -0.0787
     3 C         -4.839077   -1.974024   -4.043264 C.2        1 UNL1     -0.0649
     4 C         -5.767854   -3.387735   -4.115055 C.2        1 UNL1     -0.0542
     5 C         -6.07905   -4.534547   -4.886453 C.2        1 UNL1     0.0115
     6 C         -5.896089   -5.200542   -6.277963 C.3        1 UNL1     -0.0348
     7 C         -6.790131   -5.782966   -4.17035 C.2        1 UNL1     0.2441
     8 O         -7.985529   -6.019504   -4.278048 O.2        1 UNL1     -0.2702
     9 N         -5.906654   -6.731857   -3.627003 N.am        1 UNL1     -0.2772
     10 C         -5.571029   -6.391881   -2.336617 C.2        1 UNL1     0.1049
     11 C         -4.59988   -5.507073   -2.201684 C.2        1 UNL1     0.0801
     12 C         -6.561047   -5.696465   -0.14719 C.ar        1 UNL1     0.0753
     13 C         -5.616465   -4.621124   -0.150834 C.ar        1 UNL1     0.0305
     14 C         -4.519021   -4.569955   -1.114188 C.2        1 UNL1     0.0924
     15 N         -3.73301   -5.030422   -3.111556 N.pl3        1 UNL1     -0.3170
     16 C         -2.768179   -4.22001   -2.41687 C.3        1 UNL1     0.1275
     17 N         -3.505528   -3.713139   -1.201501 N.2        1 UNL1     -0.2557
     18 C         -1.683478   -5.156854   -1.893948 C.3        1 UNL1     0.0016
     19 C         -1.115708   -5.94452   -3.06391 C.3        1 UNL1     0.0026
     20 N         -0.573957   -5.008338   -4.039153 N.3        1 UNL1     -0.3018
     21 C         -1.529323   -4.025762   -4.555086 C.3        1 UNL1     0.0026
     22 C         -2.083651   -3.242897   -3.363559 C.3        1 UNL1     0.0016
     23 C         0.251364   -5.652641   -5.041332 C.3        1 UNL1     0.0012
     24 C         -0.131503   -5.166584   -6.448071 C.3        1 UNL1     -0.0339
     25 C         -1.580892   -5.542176   -6.797727 C.3        1 UNL1     -0.0615
     26 C         0.101547   -3.670199   -6.563396 C.3        1 UNL1     -0.0615
     27 C         -7.530502   -5.802179   0.847346 C.ar        1 UNL1     0.1347
     28 C         -7.628395   -4.918858   1.907634 C.ar        1 UNL1     0.0342
     29 C         -6.719292   -3.840857   1.856552 C.ar        1 UNL1     0.1435
     30 C         -5.766155   -3.702039   0.846859 C.ar        1 UNL1     0.0774
     31 O         -6.615971   -2.957311   2.873252 O.3        1 UNL1     -0.4436
     32 C         -5.33142   -2.342928   2.690668 C.3        1 UNL1     0.3143
     33 C         -5.010678   -2.524697   1.220873 C.2        1 UNL1     0.2504
     34 C         -8.472075   -5.107703   3.137528 C.3        1 UNL1     -0.0327
     35 O         -5.496656   -0.936698   2.910816 O.2        1 UNL1     -0.4528
     36 C         -2.175439   0.301301   4.269113 C.3        1 UNL1     0.0854
     37 C         -0.737417   0.200288   3.629259 C.3        1 UNL1     0.0236
     38 C         0.03185   1.598527   3.471466 C.3        1 UNL1     0.1131
     39 C         -0.693353   2.819326   2.77433 C.3        1 UNL1     0.0200
     40 C         -1.580463   2.591034   1.380287 C.3        1 UNL1     0.0661
     41 C         -1.056158   1.768635   -0.007652 C.3        1 UNL1     0.0091
     42 C         -1.996762   0.770407   -1.225933 C.3        1 UNL1     0.0661
     43 C         -6.417676   -6.745138   -1.187378 C.2        1 UNL1     0.2131
     44 O         -6.871012   -7.869804   -1.076247 O.2        1 UNL1     -0.2851
     45 O         -8.440405   -6.853109   0.752156 O.3        1 UNL1     -0.5056
     46 O         -4.307626   -1.839144   0.512643 O.2        1 UNL1     -0.2836
     47 C         -4.2336   1.561104   -2.446249 C.3        1 UNL1     -0.0566
     48 O         -1.385355   1.426849   -2.406772 O.3        1 UNL1     -0.3909
     49 C         0.194363   0.988147   0.330769 C.3        1 UNL1     -0.0577
     50 O         -2.909996   2.222311   1.687059 O.3        1 UNL1     -0.3910
     51 O         -2.674516   1.60587   4.460035 O.3        1 UNL1     -0.3753
     52 C         -0.663415   -0.916938   2.537801 C.3        1 UNL1     -0.0564
     53 O         1.49988   1.448796   3.197981 O.3        1 UNL1     -0.4608
     54 C         2.480512   1.353975   4.150504 C.2        1 UNL1     0.3042
     55 O         3.060507   2.277712   4.71985 O.2        1 UNL1     -0.2512
     56 C         2.802837   -0.059761   4.543148 C.3        1 UNL1     0.0332
     57 C         -1.337059   3.720741   3.928136 C.3        1 UNL1     -0.0567
     58 C         -4.327743   -3.170981   3.526425 C.3        1 UNL1     0.0210
     59 C         -3.939362   1.673583   5.11688 C.3        1 UNL1     0.0372
     60 C         -3.235409   -0.463947   3.557762 C.2        1 UNL1     -0.0208
     61 C         -4.477717   -0.113005   3.222716 C.2        1 UNL1     0.0882
     62 H         -3.9692   -0.095837   -1.116227 H        1 UNL1     0.0365
     63 H         -5.072206   -1.55707   -2.020884 H        1 UNL1     0.0576
     64 H         -4.369003   -1.79112   -5.012122 H        1 UNL1     0.0615
     65 H         -6.250346   -3.432616   -3.134917 H        1 UNL1     0.0622
     66 H         -2.07249   -0.172275   5.255609 H        1 UNL1     0.0645
     67 H         -0.13213   -0.296647   4.407233 H        1 UNL1     0.0362
     68 H         0.122015   1.879555   4.531851 H        1 UNL1     0.0741
     69 H         0.054133   3.537548   2.464766 H        1 UNL1     0.0359
     70 H         -1.657659   3.638053   1.029783 H        1 UNL1     0.0600
     71 H         -0.634459   2.614245   -0.58564 H        1 UNL1     0.0348
     72 H         -2.739096   1.394537   -0.707551 H        1 UNL1     0.0602
     73 H         -2.91447   -1.467726   3.428636 H        1 UNL1     0.0628
     74 H         -4.864606   0.90551   3.269431 H        1 UNL1     0.1022
     75 H         -5.082182   -5.964329   -6.243038 H        1 UNL1     0.0279
     76 H         -6.739461   -5.774039   -6.655975 H        1 UNL1     0.0279
     77 H         -5.507281   -4.503868   -7.035046 H        1 UNL1     0.0279
     78 H         -5.04731   -6.75067   -4.172209 H        1 UNL1     0.1553
     79 H         -3.533577   -5.486133   -3.983042 H        1 UNL1     0.1484
     80 H         -0.907214   -4.562771   -1.396709 H        1 UNL1     0.0317
     81 H         -2.087115   -5.84   -1.138939 H        1 UNL1     0.0317
     82 H         -1.873507   -6.597822   -3.520909 H        1 UNL1     0.0428
     83 H         -0.345457   -6.607378   -2.668458 H        1 UNL1     0.0428
     84 H         -1.079239   -3.285714   -5.224088 H        1 UNL1     0.0428
     85 H         -2.310992   -4.497564   -5.166407 H        1 UNL1     0.0428
     86 H         -2.673066   -2.450661   -3.786573 H        1 UNL1     0.0317
     87 H         -1.271069   -2.710532   -2.854253 H        1 UNL1     0.0317
     88 H         1.297232   -5.379256   -4.849719 H        1 UNL1     0.0429
     89 H         0.186252   -6.745925   -4.968769 H        1 UNL1     0.0429
     90 H         0.5366   -5.631273   -7.18286 H        1 UNL1     0.0308
     91 H         -2.257038   -4.693887   -6.655128 H        1 UNL1     0.0233
     92 H         -1.651748   -5.887382   -7.831855 H        1 UNL1     0.0233
     93 H         -1.961932   -6.360838   -6.175284 H        1 UNL1     0.0233
     94 H         1.171588   -3.447827   -6.48992 H        1 UNL1     0.0233
     95 H         -0.251596   -3.310767   -7.533994 H        1 UNL1     0.0233
     96 H         -0.420171   -3.123022   -5.77322 H        1 UNL1     0.0233
     97 H         -8.072849   -4.569553   3.99207 H        1 UNL1     0.0280
     98 H         -9.495256   -4.73474   2.998763 H        1 UNL1     0.0280
     99 H         -8.516431   -6.178914   3.393722 H        1 UNL1     0.0280
     100 H         -9.256958   -6.628074   0.342006 H        1 UNL1     0.2922
     101 H         -3.579411   2.131846   -3.104995 H        1 UNL1     0.0236
     102 H         -4.532946   2.134875   -1.5698 H        1 UNL1     0.0236
     103 H         -5.16305   1.425192   -3.024041 H        1 UNL1     0.0236
     104 H         -1.672527   2.360928   -2.406611 H        1 UNL1     0.2098
     105 H         1.091924   1.337307   -0.173496 H        1 UNL1     0.0234
     106 H         0.382384   0.869639   1.397789 H        1 UNL1     0.0234
     107 H         0.0   -0.0   0.0 H        1 UNL1     0.0234
     108 H         -3.494285   2.704005   1.070338 H        1 UNL1     0.2098
     109 H         0.070573   -0.684428   1.753638 H        1 UNL1     0.0234
     110 H         -0.455637   -1.909647   2.951446 H        1 UNL1     0.0234
     111 H         -1.623484   -1.040279   2.019149 H        1 UNL1     0.0234
     112 H         2.570234   -0.214408   5.60113 H        1 UNL1     0.0342
     113 H         2.284894   -0.786383   3.91897 H        1 UNL1     0.0342
     114 H         3.882213   -0.215393   4.409391 H        1 UNL1     0.0342
     115 H         -1.155952   4.791159   3.759043 H        1 UNL1     0.0234
     116 H         -2.413626   3.584943   4.049015 H        1 UNL1     0.0234
     117 H         -0.862884   3.577575   4.914343 H        1 UNL1     0.0234
     118 H         -3.375641   -3.331657   2.99099 H        1 UNL1     0.0309
     119 H         -4.117734   -2.730048   4.506056 H        1 UNL1     0.0309
     120 H         -4.682522   -4.188854   3.721802 H        1 UNL1     0.0309
     121 H         -3.82802   1.20749   6.09551 H        1 UNL1     0.0524
     122 H         -4.271075   2.712551   5.27982 H        1 UNL1     0.0524
     123 H         -4.693127   1.14983   4.535833 H        1 UNL1     0.0524
@<TRIPOS>BOND
     1     1     2    1
     2     1    42    1
     3     2     3    2
     4     3     4    1
     5     4     5    2
     6     5     7    1
     7     6    75    1
     8     6    76    1
     9     6    77    1
    10     7     9   am
    11     9    10    1
    12    10    11    2
    13    10    43    1
    14    11    14    1
    15    11    15    1
    16    12    13   ar
    17    12    27   ar
    18    12    43    1
    19    13    14    1
    20    13    30   ar
    21    14    17    2
    22    15    16    1
    23    16    17    1
    24    16    18    1
    25    16    22    1
    26    18    19    1
    27    19    20    1
    28    20    21    1
    29    21    22    1
    30    23    24    1
    31    23    88    1
    32    23    89    1
    33    24    25    1
    34    24    26    1
    35    24    90    1
    36    25    91    1
    37    25    92    1
    38    25    93    1
    39    26    94    1
    40    26    95    1
    41    26    96    1
    42    27    28   ar
    43    28    29   ar
    44    29    30   ar
    45    29    31    1
    46    30    33    1
    47    31    32    1
    48    32    33    1
    49    32    35    1
    50    34    97    1
    51    34    98    1
    52    34    99    1
    53    35    61    1
    54    36    37    1
    55    36    60    1
    56    37    38    1
    57    38    39    1
    58    39    40    1
    59    40    41    1
    60    41    42    1
    61    45   100    1
    62    47   101    1
    63    47   102    1
    64    47   103    1
    65    48   104    1
    66    49   105    1
    67    49   106    1
    68    49   107    1
    69    50   108    1
    70    51    59    1
    71    52   109    1
    72    52   110    1
    73    52   111    1
    74    53    54    1
    75    54    55    2
    76    54    56    1
    77    56   112    1
    78    56   113    1
    79    56   114    1
    80    57   115    1
    81    57   116    1
    82    57   117    1
    83    58   118    1
    84    58   119    1
    85    58   120    1
    86    59   121    1
    87    59   122    1
    88    59   123    1
    89    60    61    2
    90     1    47    1
    91     1    62    1
    92     2    63    1
    93     3    64    1
    94     4    65    1
    95     5     6    1
    96     7     8    2
    97     9    78    1
    98    15    79    1
    99    18    80    1
   100    18    81    1
   101    19    82    1
   102    19    83    1
   103    20    23    1
   104    21    84    1
   105    21    85    1
   106    22    86    1
   107    22    87    1
   108    27    45    1
   109    28    34    1
   110    32    58    1
   111    33    46    2
   112    36    51    1
   113    36    66    1
   114    37    52    1
   115    37    67    1
   116    38    53    1
   117    38    68    1
   118    42    48    1
   119    42    72    1
   120    43    44    2
   121    60    73    1
   122    61    74    1
   123    39    69    1
   124    39    57    1
   125    40    70    1
   126    40    50    1
   127    41    71    1
   128    41    49    1
