@<TRIPOS>MOLECULE
*****
 123 128 0 0 0
SMALL
GASTEIGER

@<TRIPOS>ATOM
     1 C         4.308067   -1.637042   2.176412 C.3        1 UNL1     0.0009
     2 C         5.027315   -2.186549   3.794361 C.2        1 UNL1     -0.0787
     3 C         5.616704   -1.871412   5.078633 C.2        1 UNL1     -0.0649
     4 C         6.011683   -2.938528   6.332273 C.2        1 UNL1     -0.0542
     5 C         6.282338   -3.052163   7.718243 C.2        1 UNL1     0.0115
     6 C         6.559973   -2.242824   9.014858 C.3        1 UNL1     -0.0348
     7 C         6.187026   -4.496416   8.412533 C.2        1 UNL1     0.2441
     8 O         7.171388   -5.167942   8.689318 O.2        1 UNL1     -0.2702
     9 N         4.916932   -4.824233   8.918051 N.am        1 UNL1     -0.2772
     10 C         4.152069   -5.422959   7.943457 C.2        1 UNL1     0.1049
     11 C         3.536174   -4.609228   7.105162 C.2        1 UNL1     0.0801
     12 C         4.201552   -7.229539   6.213962 C.ar        1 UNL1     0.0753
     13 C         3.727102   -6.247294   5.2873 C.ar        1 UNL1     0.0305
     14 C         3.254314   -4.938978   5.734325 C.2        1 UNL1     0.0924
     15 N         3.359292   -3.278246   7.166202 N.pl3        1 UNL1     -0.3170
     16 C         2.473674   -2.903137   6.096048 C.3        1 UNL1     0.1275
     17 N         2.694945   -3.954685   5.036327 N.2        1 UNL1     -0.2557
     18 C         1.047077   -3.102295   6.598897 C.3        1 UNL1     0.0016
     19 C         0.864755   -2.297582   7.875919 C.3        1 UNL1     0.0026
     20 N         1.127137   -0.894635   7.586227 N.3        1 UNL1     -0.3018
     21 C         2.455309   -0.610675   7.038781 C.3        1 UNL1     0.0026
     22 C         2.615151   -1.425738   5.754251 C.3        1 UNL1     0.0016
     23 C         0.694768   -0.008934   8.648882 C.3        1 UNL1     0.0012
     24 C         0.930886   1.458131   8.256806 C.3        1 UNL1     -0.0339
     25 C         0.825589   1.657708   6.735905 C.3        1 UNL1     -0.0615
     26 C         -0.034254   2.359497   9.007022 C.3        1 UNL1     -0.0615
     27 C         4.536398   -8.514954   5.794793 C.ar        1 UNL1     0.1347
     28 C         4.401291   -8.945173   4.486853 C.ar        1 UNL1     0.0342
     29 C         3.978921   -7.946804   3.583511 C.ar        1 UNL1     0.1435
     30 C         3.674465   -6.644849   3.98281 C.ar        1 UNL1     0.0774
     31 O         3.694285   -8.236864   2.295158 O.3        1 UNL1     -0.4436
     32 C         2.878077   -7.143407   1.849031 C.3        1 UNL1     0.3143
     33 C         3.218657   -5.991965   2.773368 C.2        1 UNL1     0.2504
     34 C         4.499304   -10.368266   4.012196 C.3        1 UNL1     -0.0327
     35 O         3.334302   -6.777302   0.540949 O.2        1 UNL1     -0.4528
     36 C         0.292851   -5.420072   -1.279926 C.3        1 UNL1     0.0854
     37 C         -0.657801   -4.226947   -0.87963 C.3        1 UNL1     0.0236
     38 C         -0.819392   -3.08757   -1.996525 C.3        1 UNL1     0.1131
     39 C         0.467616   -2.444924   -2.654465 C.3        1 UNL1     0.0200
     40 C         1.77643   -2.020793   -1.711301 C.3        1 UNL1     0.0661
     41 C         1.718907   -1.097887   -0.289139 C.3        1 UNL1     0.0091
     42 C         2.765138   -1.16516   1.216277 C.3        1 UNL1     0.0661
     43 C         4.240312   -6.861383   7.651049 C.2        1 UNL1     0.2131
     44 O         4.238243   -7.677111   8.555107 O.2        1 UNL1     -0.2851
     45 O         5.033573   -9.3967   6.752279 O.3        1 UNL1     -0.5056
     46 O         3.150375   -4.803382   2.553223 O.2        1 UNL1     -0.2836
     47 C         5.43301   -1.150423   1.223685 C.3        1 UNL1     -0.0566
     48 O         2.978944   0.301247   1.271533 O.3        1 UNL1     -0.3909
     49 C         0.282514   -1.006477   0.175527 C.3        1 UNL1     -0.0577
     50 O         2.647151   -3.120682   -1.538637 O.3        1 UNL1     -0.3910
     51 O         1.013046   -5.257657   -2.480914 O.3        1 UNL1     -0.3753
     52 C         -0.557817   -3.889297   0.643835 C.3        1 UNL1     -0.0564
     53 O         -1.975316   -2.163096   -1.748508 O.3        1 UNL1     -0.4608
     54 C         -2.78261   -1.622459   -2.714902 C.2        1 UNL1     0.3042
     55 O         -2.493769   -0.73892   -3.520985 O.2        1 UNL1     -0.2512
     56 C         -4.142242   -2.257214   -2.787012 C.3        1 UNL1     0.0332
     57 C         0.754837   -3.229388   -4.018391 C.3        1 UNL1     -0.0567
     58 C         1.410495   -7.563935   2.095789 C.3        1 UNL1     0.0210
     59 C         0.939506   -3.952187   -3.052056 C.3        1 UNL1     0.0372
     60 C         1.279432   -5.814874   -0.237838 C.2        1 UNL1     -0.0208
     61 C         2.580104   -6.091755   -0.339503 C.2        1 UNL1     0.0882
     62 H         4.118423   -2.687717   1.925758 H        1 UNL1     0.0365
     63 H         5.022345   -3.270455   3.661722 H        1 UNL1     0.0576
     64 H         5.713292   -0.840555   5.426645 H        1 UNL1     0.0615
     65 H         5.961345   -3.923969   5.861258 H        1 UNL1     0.0622
     66 H         -0.37997   -6.280929   -1.399437 H        1 UNL1     0.0645
     67 H         -1.665952   -4.676597   -0.877347 H        1 UNL1     0.0362
     68 H         -1.291244   -3.679142   -2.79585 H        1 UNL1     0.0741
     69 H         0.191442   -1.504915   -3.113291 H        1 UNL1     0.0359
     70 H         2.310057   -1.35333   -2.414718 H        1 UNL1     0.0600
     71 H         1.875911   -0.085146   -0.70945 H        1 UNL1     0.0348
     72 H         3.340369   -1.666746   0.424547 H        1 UNL1     0.0602
     73 H         0.770318   -5.9867   0.677873 H        1 UNL1     0.0628
     74 H         3.186319   -5.88983   -1.223226 H        1 UNL1     0.1022
     75 H         6.168103   -1.20158   8.918507 H        1 UNL1     0.0279
     76 H         6.070599   -2.594444   9.920367 H        1 UNL1     0.0279
     77 H         7.631527   -2.05688   9.178863 H        1 UNL1     0.0279
     78 H         4.434745   -3.97594   9.20783 H        1 UNL1     0.1553
     79 H         3.450344   -2.742381   8.009701 H        1 UNL1     0.1484
     80 H         0.345251   -2.781411   5.819641 H        1 UNL1     0.0317
     81 H         0.843009   -4.161736   6.787559 H        1 UNL1     0.0317
     82 H         1.51531   -2.663291   8.683971 H        1 UNL1     0.0428
     83 H         -0.15847   -2.455315   8.218236 H        1 UNL1     0.0428
     84 H         2.598285   0.436811   6.755688 H        1 UNL1     0.0428
     85 H         3.249479   -0.799028   7.774399 H        1 UNL1     0.0428
     86 H         3.53702   -1.094016   5.313677 H        1 UNL1     0.0317
     87 H         1.859024   -1.120853   5.020484 H        1 UNL1     0.0317
     88 H         -0.381568   -0.160576   8.803153 H        1 UNL1     0.0429
     89 H         1.192709   -0.250563   9.596745 H        1 UNL1     0.0429
     90 H         1.934493   1.759193   8.579833 H        1 UNL1     0.0308
     91 H         -0.21382   1.603171   6.398628 H        1 UNL1     0.0233
     92 H         1.247669   2.621799   6.442672 H        1 UNL1     0.0233
     93 H         1.382267   0.896974   6.175343 H        1 UNL1     0.0233
     94 H         0.181012   3.41049   8.785868 H        1 UNL1     0.0233
     95 H         -1.060767   2.152115   8.692019 H        1 UNL1     0.0233
     96 H         0.039955   2.21161   10.088036 H        1 UNL1     0.0233
     97 H         3.522124   -10.828053   3.898414 H        1 UNL1     0.0280
     98 H         4.983501   -10.444441   3.029849 H        1 UNL1     0.0280
     99 H         5.077489   -10.961002   4.739837 H        1 UNL1     0.0280
     100 H         5.300789   -10.232913   6.413214 H        1 UNL1     0.2922
     101 H         6.404288   -1.301549   1.694256 H        1 UNL1     0.0236
     102 H         5.296308   -0.122761   0.888711 H        1 UNL1     0.0236
     103 H         5.475978   -1.745043   0.295906 H        1 UNL1     0.0236
     104 H         2.298181   0.719972   0.709215 H        1 UNL1     0.2098
     105 H         -0.407425   -1.645635   -0.3697 H        1 UNL1     0.0234
     106 H         0.142645   -1.129071   1.249461 H        1 UNL1     0.0234
     107 H         0.0   0.0   0.0 H        1 UNL1     0.0234
     108 H         2.84862   -3.473401   -2.426763 H        1 UNL1     0.2098
     109 H         -1.32388   -3.168096   0.961212 H        1 UNL1     0.0234
     110 H         -0.601554   -4.77626   1.285028 H        1 UNL1     0.0234
     111 H         0.406743   -3.427571   0.893593 H        1 UNL1     0.0234
     112 H         -4.25729   -2.783336   -3.739537 H        1 UNL1     0.0342
     113 H         -4.327556   -2.924938   -1.946983 H        1 UNL1     0.0342
     114 H         -4.896057   -1.458736   -2.75012 H        1 UNL1     0.0342
     115 H         1.780344   -3.064077   -4.376435 H        1 UNL1     0.0234
     116 H         0.600436   -4.308127   -3.951062 H        1 UNL1     0.0234
     117 H         0.167333   -2.854006   -4.873884 H        1 UNL1     0.0234
     118 H         0.761251   -7.328242   1.234432 H        1 UNL1     0.0309
     119 H         1.30359   -8.624374   2.345274 H        1 UNL1     0.0309
     120 H         0.947502   -7.01035   2.919978 H        1 UNL1     0.0309
     121 H         0.694333   -4.067413   -4.107504 H        1 UNL1     0.0524
     122 H         0.147101   -3.338406   -2.592267 H        1 UNL1     0.0524
     123 H         1.890988   -3.439669   -2.942049 H        1 UNL1     0.0524
@<TRIPOS>BOND
     1     1     2    1
     2     1    42    1
     3     2     3    2
     4     3     4    1
     5     4     5    2
     6     5     7    1
     7     6    75    1
     8     6    76    1
     9     6    77    1
    10     7     9   am
    11     9    10    1
    12    10    11    2
    13    10    43    1
    14    11    14    1
    15    11    15    1
    16    12    13   ar
    17    12    27   ar
    18    12    43    1
    19    13    14    1
    20    13    30   ar
    21    14    17    2
    22    15    16    1
    23    16    17    1
    24    16    18    1
    25    16    22    1
    26    18    19    1
    27    19    20    1
    28    20    21    1
    29    21    22    1
    30    23    24    1
    31    23    88    1
    32    23    89    1
    33    24    25    1
    34    24    26    1
    35    24    90    1
    36    25    91    1
    37    25    92    1
    38    25    93    1
    39    26    94    1
    40    26    95    1
    41    26    96    1
    42    27    28   ar
    43    28    29   ar
    44    29    30   ar
    45    29    31    1
    46    30    33    1
    47    31    32    1
    48    32    33    1
    49    32    35    1
    50    34    97    1
    51    34    98    1
    52    34    99    1
    53    35    61    1
    54    36    37    1
    55    36    60    1
    56    37    38    1
    57    38    39    1
    58    39    40    1
    59    40    41    1
    60    41    42    1
    61    45   100    1
    62    47   101    1
    63    47   102    1
    64    47   103    1
    65    48   104    1
    66    49   105    1
    67    49   106    1
    68    49   107    1
    69    50   108    1
    70    51    59    1
    71    52   109    1
    72    52   110    1
    73    52   111    1
    74    53    54    1
    75    54    55    2
    76    54    56    1
    77    56   112    1
    78    56   113    1
    79    56   114    1
    80    57   115    1
    81    57   116    1
    82    57   117    1
    83    58   118    1
    84    58   119    1
    85    58   120    1
    86    59   121    1
    87    59   122    1
    88    59   123    1
    89    60    61    2
    90     1    47    1
    91     1    62    1
    92     2    63    1
    93     3    64    1
    94     4    65    1
    95     5     6    1
    96     7     8    2
    97     9    78    1
    98    15    79    1
    99    18    80    1
   100    18    81    1
   101    19    82    1
   102    19    83    1
   103    20    23    1
   104    21    84    1
   105    21    85    1
   106    22    86    1
   107    22    87    1
   108    27    45    1
   109    28    34    1
   110    32    58    1
   111    33    46    2
   112    36    51    1
   113    36    66    1
   114    37    52    1
   115    37    67    1
   116    38    53    1
   117    38    68    1
   118    42    48    1
   119    42    72    1
   120    43    44    2
   121    60    73    1
   122    61    74    1
   123    39    69    1
   124    39    57    1
   125    40    70    1
   126    40    50    1
   127    41    71    1
   128    41    49    1
