@<TRIPOS>MOLECULE
*****
 123 128 0 0 0
SMALL
GASTEIGER

@<TRIPOS>ATOM
     1 C         4.834899   2.518674   0.519445 C.3        1 UNL1     0.0009
     2 C         6.122298   3.545734   -0.3319 C.2        1 UNL1     -0.0787
     3 C         7.414137   3.660332   -0.975378 C.2        1 UNL1     -0.0649
     4 C         8.073307   5.012361   -1.75247 C.2        1 UNL1     -0.0542
     5 C         9.043552   5.457981   -2.683666 C.2        1 UNL1     0.0115
     6 C         10.281644   5.021524   -3.514301 C.3        1 UNL1     -0.0348
     7 C         8.886216   6.918769   -3.330452 C.2        1 UNL1     0.2441
     8 O         9.543681   7.883105   -2.963953 O.2        1 UNL1     -0.2702
     9 N         8.134408   6.959415   -4.517585 N.am        1 UNL1     -0.2772
     10 C         6.797511   7.119592   -4.234083 C.2        1 UNL1     0.1049
     11 C         6.131859   6.020921   -3.927402 C.2        1 UNL1     0.0801
     12 C         5.207163   8.504778   -2.888949 C.ar        1 UNL1     0.0753
     13 C         4.65154   7.271499   -2.421066 C.ar        1 UNL1     0.0305
     14 C         5.010924   5.991553   -3.027392 C.2        1 UNL1     0.0924
     15 N         6.491382   4.731354   -4.046936 N.pl3        1 UNL1     -0.3170
     16 C         5.341998   3.924013   -3.734896 C.3        1 UNL1     0.1275
     17 N         4.527056   4.775245   -2.79203 N.2        1 UNL1     -0.2557
     18 C         4.517278   3.79857   -5.012316 C.3        1 UNL1     0.0016
     19 C         5.403635   3.23139   -6.109708 C.3        1 UNL1     0.0026
     20 N         5.906281   1.933481   -5.68098 N.3        1 UNL1     -0.3018
     21 C         6.661399   1.942719   -4.426357 C.3        1 UNL1     0.0026
     22 C         5.750571   2.511786   -3.337114 C.3        1 UNL1     0.0016
     23 C         6.510899   1.178337   -6.760256 C.3        1 UNL1     0.0012
     24 C         5.437619   0.702652   -7.751997 C.3        1 UNL1     -0.0339
     25 C         5.794008   -0.667408   -8.35198 C.3        1 UNL1     -0.0615
     26 C         4.077537   0.680326   -7.076381 C.3        1 UNL1     -0.0615
     27 C         4.770285   9.729066   -2.388574 C.ar        1 UNL1     0.1347
     28 C         3.759886   9.84788   -1.451009 C.ar        1 UNL1     0.0342
     29 C         3.26174   8.618726   -0.969144 C.ar        1 UNL1     0.1435
     30 C         3.715031   7.383828   -1.434735 C.ar        1 UNL1     0.0774
     31 O         2.200492   8.566838   -0.134838 O.3        1 UNL1     -0.4436
     32 C         1.711881   7.222135   -0.252767 C.3        1 UNL1     0.3143
     33 C         2.895557   6.411971   -0.741394 C.2        1 UNL1     0.2504
     34 C         3.069214   11.123412   -1.055926 C.3        1 UNL1     -0.0327
     35 O         1.408551   6.761608   1.069791 O.2        1 UNL1     -0.4528
     36 C         -1.431876   4.274071   0.679631 C.3        1 UNL1     0.0854
     37 C         -1.49099   2.957052   -0.186098 C.3        1 UNL1     0.0236
     38 C         -1.87375   1.629593   0.628207 C.3        1 UNL1     0.1131
     39 C         -1.091117   1.269207   1.954811 C.3        1 UNL1     0.0200
     40 C         0.56841   1.422507   2.024855 C.3        1 UNL1     0.0661
     41 C         1.671788   0.807311   0.892733 C.3        1 UNL1     0.0091
     42 C         3.298766   1.453428   0.344209 C.3        1 UNL1     0.0661
     43 C         6.200887   8.44113   -3.989277 C.2        1 UNL1     0.2131
     44 O         6.449211   9.377586   -4.726923 O.2        1 UNL1     -0.2851
     45 O         5.394941   10.880226   -2.864046 O.3        1 UNL1     -0.5056
     46 O         3.122195   5.234156   -0.576341 O.2        1 UNL1     -0.2836
     47 C         5.272734   2.20297   1.974991 C.3        1 UNL1     -0.0566
     48 O         3.988817   0.147115   0.472629 O.3        1 UNL1     -0.3909
     49 C         0.916688   0.398851   -0.352449 C.3        1 UNL1     -0.0577
     50 O         0.935208   2.737218   2.391895 O.3        1 UNL1     -0.3910
     51 O         -1.547749   4.100532   2.073865 O.3        1 UNL1     -0.3753
     52 C         -0.412126   2.955854   -1.317911 C.3        1 UNL1     -0.0564
     53 O         -2.264651   0.477626   -0.25071 O.3        1 UNL1     -0.4608
     54 C         -2.254293   -0.842417   0.117133 C.2        1 UNL1     0.3042
     55 O         -1.416234   -1.693472   -0.178165 O.2        1 UNL1     -0.2512
     56 C         -3.387375   -1.221947   1.027514 C.3        1 UNL1     0.0332
     57 C         -1.944089   1.830923   3.1857 C.3        1 UNL1     -0.0567
     58 C         0.631839   7.244654   -1.359352 C.3        1 UNL1     0.0210
     59 C         -2.788796   4.531669   2.630452 C.3        1 UNL1     0.0372
     60 C         -0.231257   5.123457   0.451117 C.2        1 UNL1     -0.0208
     61 C         0.572689   5.735918   1.32135 C.2        1 UNL1     0.0882
     62 H         4.19033   3.404401   0.571679 H        1 UNL1     0.0365
     63 H         5.67133   4.5377   -0.260486 H        1 UNL1     0.0576
     64 H         8.040297   2.78502   -1.162086 H        1 UNL1     0.0615
     65 H         7.42484   5.834998   -1.439036 H        1 UNL1     0.0622
     66 H         -2.290875   4.868193   0.337308 H        1 UNL1     0.0645
     67 H         -2.385472   3.09202   -0.818748 H        1 UNL1     0.0362
     68 H         -2.890038   1.899813   0.953264 H        1 UNL1     0.0741
     69 H         -1.241822   0.220529   2.173831 H        1 UNL1     0.0359
     70 H         0.778156   0.815043   2.925995 H        1 UNL1     0.0600
     71 H         1.88739   -0.178715   1.349051 H        1 UNL1     0.0348
     72 H         3.088686   1.939596   1.307963 H        1 UNL1     0.0602
     73 H         -0.129819   5.312294   -0.588739 H        1 UNL1     0.0628
     74 H         0.571713   5.552572   2.396348 H        1 UNL1     0.1022
     75 H         10.470625   3.92784   -3.391107 H        1 UNL1     0.0279
     76 H         10.202533   5.125411   -4.594124 H        1 UNL1     0.0279
     77 H         11.221145   5.448123   -3.133445 H        1 UNL1     0.0279
     78 H         8.23805   6.079338   -5.018385 H        1 UNL1     0.1553
     79 H         7.234051   4.41305   -4.641963 H        1 UNL1     0.1484
     80 H         3.654684   3.149566   -4.818689 H        1 UNL1     0.0317
     81 H         4.115752   4.771316   -5.315948 H        1 UNL1     0.0317
     82 H         6.230003   3.9133   -6.35876 H        1 UNL1     0.0428
     83 H         4.796306   3.15194   -7.011866 H        1 UNL1     0.0428
     84 H         6.958691   0.945936   -4.085986 H        1 UNL1     0.0428
     85 H         7.61172   2.485339   -4.525205 H        1 UNL1     0.0428
     86 H         6.285221   2.380267   -2.414704 H        1 UNL1     0.0317
     87 H         4.869107   1.870889   -3.213143 H        1 UNL1     0.0317
     88 H         7.20847   1.83958   -7.290773 H        1 UNL1     0.0429
     89 H         7.097393   0.333743   -6.37625 H        1 UNL1     0.0429
     90 H         5.354807   1.430324   -8.567993 H        1 UNL1     0.0308
     91 H         6.12245   -1.367344   -7.577823 H        1 UNL1     0.0233
     92 H         4.937173   -1.092661   -8.879808 H        1 UNL1     0.0233
     93 H         6.60503   -0.603033   -9.087462 H        1 UNL1     0.0233
     94 H         3.401854   0.003088   -7.609896 H        1 UNL1     0.0233
     95 H         4.176421   0.317846   -6.04935 H        1 UNL1     0.0233
     96 H         3.625029   1.675737   -7.057363 H        1 UNL1     0.0233
     97 H         1.998318   11.077713   -1.230061 H        1 UNL1     0.0280
     98 H         3.190772   11.346143   0.012189 H        1 UNL1     0.0280
     99 H         3.479184   11.961983   -1.642286 H        1 UNL1     0.0280
     100 H         6.33541   10.85005   -2.848899 H        1 UNL1     0.2922
     101 H         4.40244   1.923066   2.568201 H        1 UNL1     0.0236
     102 H         5.839872   3.010524   2.436722 H        1 UNL1     0.0236
     103 H         5.93982   1.326272   2.025868 H        1 UNL1     0.0236
     104 H         4.331548   0.083071   1.385539 H        1 UNL1     0.2098
     105 H         0.685092   1.219542   -1.02672 H        1 UNL1     0.0234
     106 H         1.361977   -0.429052   -0.90401 H        1 UNL1     0.0234
     107 H         0.0   -0.0   0.0 H        1 UNL1     0.0234
     108 H         0.777653   3.309552   1.616409 H        1 UNL1     0.2098
     109 H         -0.545382   3.790315   -2.020499 H        1 UNL1     0.0234
     110 H         0.613896   2.959967   -0.934497 H        1 UNL1     0.0234
     111 H         -0.465172   2.0434   -1.926648 H        1 UNL1     0.0234
     112 H         -3.308626   -2.279054   1.298932 H        1 UNL1     0.0342
     113 H         -3.427867   -0.592597   1.915277 H        1 UNL1     0.0342
     114 H         -4.329234   -1.084407   0.478743 H        1 UNL1     0.0342
     115 H         -2.987877   1.489858   3.14871 H        1 UNL1     0.0234
     116 H         -1.544009   1.558185   4.16427 H        1 UNL1     0.0234
     117 H         -2.076984   2.926307   3.165357 H        1 UNL1     0.0234
     118 H         -0.382314   7.08761   -0.952122 H        1 UNL1     0.0309
     119 H         0.641683   8.165799   -1.950621 H        1 UNL1     0.0309
     120 H         0.746443   6.423495   -2.075362 H        1 UNL1     0.0309
     121 H         -2.611098   4.785696   3.675082 H        1 UNL1     0.0524
     122 H         -3.18023   5.433755   2.131396 H        1 UNL1     0.0524
     123 H         -3.528621   3.739522   2.557942 H        1 UNL1     0.0524
@<TRIPOS>BOND
     1     1     2    1
     2     1    42    1
     3     2     3    2
     4     3     4    1
     5     4     5    2
     6     5     7    1
     7     6    75    1
     8     6    76    1
     9     6    77    1
    10     7     9   am
    11     9    10    1
    12    10    11    2
    13    10    43    1
    14    11    14    1
    15    11    15    1
    16    12    13   ar
    17    12    27   ar
    18    12    43    1
    19    13    14    1
    20    13    30   ar
    21    14    17    2
    22    15    16    1
    23    16    17    1
    24    16    18    1
    25    16    22    1
    26    18    19    1
    27    19    20    1
    28    20    21    1
    29    21    22    1
    30    23    24    1
    31    23    88    1
    32    23    89    1
    33    24    25    1
    34    24    26    1
    35    24    90    1
    36    25    91    1
    37    25    92    1
    38    25    93    1
    39    26    94    1
    40    26    95    1
    41    26    96    1
    42    27    28   ar
    43    28    29   ar
    44    29    30   ar
    45    29    31    1
    46    30    33    1
    47    31    32    1
    48    32    33    1
    49    32    35    1
    50    34    97    1
    51    34    98    1
    52    34    99    1
    53    35    61    1
    54    36    37    1
    55    36    60    1
    56    37    38    1
    57    38    39    1
    58    39    40    1
    59    40    41    1
    60    41    42    1
    61    45   100    1
    62    47   101    1
    63    47   102    1
    64    47   103    1
    65    48   104    1
    66    49   105    1
    67    49   106    1
    68    49   107    1
    69    50   108    1
    70    51    59    1
    71    52   109    1
    72    52   110    1
    73    52   111    1
    74    53    54    1
    75    54    55    2
    76    54    56    1
    77    56   112    1
    78    56   113    1
    79    56   114    1
    80    57   115    1
    81    57   116    1
    82    57   117    1
    83    58   118    1
    84    58   119    1
    85    58   120    1
    86    59   121    1
    87    59   122    1
    88    59   123    1
    89    60    61    2
    90     1    47    1
    91     1    62    1
    92     2    63    1
    93     3    64    1
    94     4    65    1
    95     5     6    1
    96     7     8    2
    97     9    78    1
    98    15    79    1
    99    18    80    1
   100    18    81    1
   101    19    82    1
   102    19    83    1
   103    20    23    1
   104    21    84    1
   105    21    85    1
   106    22    86    1
   107    22    87    1
   108    27    45    1
   109    28    34    1
   110    32    58    1
   111    33    46    2
   112    36    51    1
   113    36    66    1
   114    37    52    1
   115    37    67    1
   116    38    53    1
   117    38    68    1
   118    42    48    1
   119    42    72    1
   120    43    44    2
   121    60    73    1
   122    61    74    1
   123    39    69    1
   124    39    57    1
   125    40    70    1
   126    40    50    1
   127    41    71    1
   128    41    49    1
