@<TRIPOS>MOLECULE
*****
 123 128 0 0 0
SMALL
GASTEIGER

@<TRIPOS>ATOM
     1 C         -0.016051   -4.825224   -2.088594 C.3        1 UNL1     0.0009
     2 C         -0.383358   -5.683477   -3.690319 C.2        1 UNL1     -0.0787
     3 C         -1.189233   -6.601429   -4.467478 C.2        1 UNL1     -0.0649
     4 C         -1.087782   -6.927827   -6.125649 C.2        1 UNL1     -0.0542
     5 C         -1.774937   -7.445437   -7.251249 C.2        1 UNL1     0.0115
     6 C         -3.043912   -8.219932   -7.702008 C.3        1 UNL1     -0.0348
     7 C         -1.240598   -7.084297   -8.7213 C.2        1 UNL1     0.2441
     8 O         -0.591572   -7.864977   -9.403817 O.2        1 UNL1     -0.2702
     9 N         -1.787501   -5.913983   -9.275748 N.am        1 UNL1     -0.2772
     10 C         -1.041416   -4.8164   -8.912439 C.2        1 UNL1     0.1049
     11 C         -1.305886   -4.299619   -7.726178 C.2        1 UNL1     0.0801
     12 C         1.307142   -3.962118   -8.803755 C.ar        1 UNL1     0.0753
     13 C         1.032026   -3.607324   -7.444696 C.ar        1 UNL1     0.0305
     14 C         -0.324749   -3.645301   -6.903613 C.2        1 UNL1     0.0924
     15 N         -2.330839   -4.536779   -6.889665 N.pl3        1 UNL1     -0.3170
     16 C         -2.244153   -3.590581   -5.80918 C.3        1 UNL1     0.1275
     17 N         -0.7745   -3.261245   -5.712332 N.2        1 UNL1     -0.2557
     18 C         -2.935189   -2.311448   -6.27177 C.3        1 UNL1     0.0016
     19 C         -4.355027   -2.651785   -6.695821 C.3        1 UNL1     0.0026
     20 N         -5.052489   -3.243705   -5.562593 N.3        1 UNL1     -0.3018
     21 C         -4.428046   -4.44629   -5.00741 C.3        1 UNL1     0.0026
     22 C         -3.004478   -4.080365   -4.583797 C.3        1 UNL1     0.0016
     23 C         -6.48528   -3.328523   -5.763984 C.3        1 UNL1     0.0012
     24 C         -7.117987   -1.928458   -5.728541 C.3        1 UNL1     -0.0339
     25 C         -8.584828   -1.962421   -6.188195 C.3        1 UNL1     -0.0615
     26 C         -6.981252   -1.330196   -4.339236 C.3        1 UNL1     -0.0615
     27 C         2.580807   -3.808299   -9.34619 C.ar        1 UNL1     0.1347
     28 C         3.645467   -3.274926   -8.641873 C.ar        1 UNL1     0.0342
     29 C         3.363463   -2.978394   -7.291427 C.ar        1 UNL1     0.1435
     30 C         2.101699   -3.16108   -6.724154 C.ar        1 UNL1     0.0774
     31 O         4.264665   -2.350855   -6.504638 O.3        1 UNL1     -0.4436
     32 C         3.489385   -1.813636   -5.422415 C.3        1 UNL1     0.3143
     33 C         2.237958   -2.666514   -5.370048 C.2        1 UNL1     0.2504
     34 C         4.963566   -2.848252   -9.225536 C.3        1 UNL1     -0.0327
     35 O         4.215704   -2.063863   -4.212828 O.2        1 UNL1     -0.4528
     36 C         3.309853   0.765958   -1.850704 C.3        1 UNL1     0.0854
     37 C         1.889324   1.21697   -1.33475 C.3        1 UNL1     0.0236
     38 C         1.736912   1.275327   0.26059 C.3        1 UNL1     0.1131
     39 C         2.166609   0.030119   1.136425 C.3        1 UNL1     0.0200
     40 C         1.757833   -1.516535   0.663982 C.3        1 UNL1     0.0661
     41 C         0.210693   -2.038958   0.204588 C.3        1 UNL1     0.0091
     42 C         -0.302671   -3.318523   -1.005607 C.3        1 UNL1     0.0661
     43 C         0.170197   -4.415411   -9.642887 C.2        1 UNL1     0.2131
     44 O         0.171661   -4.369963   -10.859715 O.2        1 UNL1     -0.2851
     45 O         2.775237   -4.220269   -10.662972 O.3        1 UNL1     -0.5056
     46 O         1.526261   -2.902684   -4.419488 O.2        1 UNL1     -0.2836
     47 C         0.646978   -5.810327   -1.08862 C.3        1 UNL1     -0.0566
     48 O         -1.276689   -3.958039   -0.088314 O.3        1 UNL1     -0.3909
     49 C         -0.661579   -0.827356   -0.037601 C.3        1 UNL1     -0.0577
     50 O         2.727716   -2.043752   -0.218681 O.3        1 UNL1     -0.3910
     51 O         4.206104   0.306196   -0.864406 O.3        1 UNL1     -0.3753
     52 C         0.741833   0.696931   -2.26091 C.3        1 UNL1     -0.0564
     53 O         0.523375   2.028901   0.720785 O.3        1 UNL1     -0.4608
     54 C         -0.258088   1.697054   1.796482 C.2        1 UNL1     0.3042
     55 O         -0.458209   2.366635   2.809128 O.2        1 UNL1     -0.2512
     56 C         -0.968328   0.38247   1.641111 C.3        1 UNL1     0.0332
     57 C         3.664491   0.285521   1.635716 C.3        1 UNL1     -0.0567
     58 C         3.096649   -0.376468   -5.836948 C.3        1 UNL1     0.0210
     59 C         5.282395   1.195793   -0.571012 C.3        1 UNL1     0.0372
     60 C         3.290816   -0.262518   -2.92636 C.2        1 UNL1     -0.0208
     61 C         4.016397   -1.371683   -3.074782 C.2        1 UNL1     0.0882
     62 H         0.800195   -4.287573   -2.585972 H        1 UNL1     0.0365
     63 H         0.449142   -5.333623   -4.304335 H        1 UNL1     0.0576
     64 H         -2.086055   -7.067558   -4.053303 H        1 UNL1     0.0615
     65 H         -0.129072   -6.491559   -6.418953 H        1 UNL1     0.0622
     66 H         3.738059   1.670123   -2.305866 H        1 UNL1     0.0645
     67 H         1.835244   2.287224   -1.599686 H        1 UNL1     0.0362
     68 H         2.474729   2.060031   0.487278 H        1 UNL1     0.0741
     69 H         1.700884   0.111702   2.109488 H        1 UNL1     0.0359
     70 H         1.926303   -2.0572   1.61496 H        1 UNL1     0.0600
     71 H         -0.17287   -2.390552   1.182452 H        1 UNL1     0.0348
     72 H         0.746552   -3.537407   -0.759565 H        1 UNL1     0.0602
     73 H         2.655199   0.064774   -3.711293 H        1 UNL1     0.0628
     74 H         4.64631   -1.805138   -2.297245 H        1 UNL1     0.1022
     75 H         -3.197409   -9.124901   -7.066003 H        1 UNL1     0.0279
     76 H         -3.992704   -7.698019   -7.599682 H        1 UNL1     0.0279
     77 H         -2.934773   -8.671545   -8.698921 H        1 UNL1     0.0279
     78 H         -2.730669   -5.774934   -8.919131 H        1 UNL1     0.1553
     79 H         -3.195224   -4.959901   -7.173813 H        1 UNL1     0.1484
     80 H         -2.925758   -1.583339   -5.451687 H        1 UNL1     0.0317
     81 H         -2.391881   -1.852448   -7.104709 H        1 UNL1     0.0317
     82 H         -4.369856   -3.325229   -7.565399 H        1 UNL1     0.0428
     83 H         -4.828911   -1.726026   -7.023623 H        1 UNL1     0.0428
     84 H         -4.926295   -4.824528   -4.109359 H        1 UNL1     0.0428
     85 H         -4.468799   -5.28976   -5.710414 H        1 UNL1     0.0428
     86 H         -2.62665   -4.94134   -4.064224 H        1 UNL1     0.0317
     87 H         -3.031935   -3.306787   -3.806674 H        1 UNL1     0.0317
     88 H         -6.665629   -3.768598   -6.75348 H        1 UNL1     0.0429
     89 H         -6.952992   -3.993219   -5.026285 H        1 UNL1     0.0429
     90 H         -6.557825   -1.264122   -6.397188 H        1 UNL1     0.0308
     91 H         -9.183575   -1.212003   -5.663336 H        1 UNL1     0.0233
     92 H         -8.656441   -1.789606   -7.264585 H        1 UNL1     0.0233
     93 H         -9.058334   -2.934057   -6.002318 H        1 UNL1     0.0233
     94 H         -6.898338   -2.126446   -3.591609 H        1 UNL1     0.0233
     95 H         -6.075932   -0.719305   -4.282935 H        1 UNL1     0.0233
     96 H         -7.843758   -0.707208   -4.086378 H        1 UNL1     0.0233
     97 H         5.171741   -1.799107   -9.03795 H        1 UNL1     0.0280
     98 H         5.806463   -3.403725   -8.793991 H        1 UNL1     0.0280
     99 H         4.953633   -3.008976   -10.316024 H        1 UNL1     0.0280
     100 H         2.451951   -5.082937   -10.855102 H        1 UNL1     0.2922
     101 H         1.714252   -5.601082   -1.019358 H        1 UNL1     0.0236
     102 H         0.449535   -6.855971   -1.322347 H        1 UNL1     0.0236
     103 H         0.268145   -5.675534   -0.061727 H        1 UNL1     0.0236
     104 H         -1.335178   -3.402653   0.713618 H        1 UNL1     0.2098
     105 H         -1.154621   -0.815348   -1.006403 H        1 UNL1     0.0234
     106 H         -1.380218   -0.61793   0.754628 H        1 UNL1     0.0234
     107 H         0.0   0.0   0.0 H        1 UNL1     0.0234
     108 H         2.572621   -3.006091   -0.278828 H        1 UNL1     0.2098
     109 H         0.830283   1.079208   -3.287435 H        1 UNL1     0.0234
     110 H         0.667481   -0.395668   -2.281931 H        1 UNL1     0.0234
     111 H         -0.2445   1.024086   -1.905857 H        1 UNL1     0.0234
     112 H         -1.590711   0.189551   2.520183 H        1 UNL1     0.0342
     113 H         -1.559357   0.34178   0.727397 H        1 UNL1     0.0342
     114 H         -0.211347   -0.411778   1.583545 H        1 UNL1     0.0342
     115 H         3.745312   0.229779   2.730042 H        1 UNL1     0.0234
     116 H         4.396431   -0.407812   1.216667 H        1 UNL1     0.0234
     117 H         4.021771   1.312624   1.447697 H        1 UNL1     0.0234
     118 H         3.618559   0.386441   -5.233139 H        1 UNL1     0.0309
     119 H         3.269761   -0.173051   -6.898483 H        1 UNL1     0.0309
     120 H         2.037927   -0.161178   -5.655662 H        1 UNL1     0.0309
     121 H         6.109491   0.597957   -0.189092 H        1 UNL1     0.0524
     122 H         5.64283   1.726544   -1.46791 H        1 UNL1     0.0524
     123 H         4.974192   1.926729   0.171172 H        1 UNL1     0.0524
@<TRIPOS>BOND
     1     1     2    1
     2     1    42    1
     3     2     3    2
     4     3     4    1
     5     4     5    2
     6     5     7    1
     7     6    75    1
     8     6    76    1
     9     6    77    1
    10     7     9   am
    11     9    10    1
    12    10    11    2
    13    10    43    1
    14    11    14    1
    15    11    15    1
    16    12    13   ar
    17    12    27   ar
    18    12    43    1
    19    13    14    1
    20    13    30   ar
    21    14    17    2
    22    15    16    1
    23    16    17    1
    24    16    18    1
    25    16    22    1
    26    18    19    1
    27    19    20    1
    28    20    21    1
    29    21    22    1
    30    23    24    1
    31    23    88    1
    32    23    89    1
    33    24    25    1
    34    24    26    1
    35    24    90    1
    36    25    91    1
    37    25    92    1
    38    25    93    1
    39    26    94    1
    40    26    95    1
    41    26    96    1
    42    27    28   ar
    43    28    29   ar
    44    29    30   ar
    45    29    31    1
    46    30    33    1
    47    31    32    1
    48    32    33    1
    49    32    35    1
    50    34    97    1
    51    34    98    1
    52    34    99    1
    53    35    61    1
    54    36    37    1
    55    36    60    1
    56    37    38    1
    57    38    39    1
    58    39    40    1
    59    40    41    1
    60    41    42    1
    61    45   100    1
    62    47   101    1
    63    47   102    1
    64    47   103    1
    65    48   104    1
    66    49   105    1
    67    49   106    1
    68    49   107    1
    69    50   108    1
    70    51    59    1
    71    52   109    1
    72    52   110    1
    73    52   111    1
    74    53    54    1
    75    54    55    2
    76    54    56    1
    77    56   112    1
    78    56   113    1
    79    56   114    1
    80    57   115    1
    81    57   116    1
    82    57   117    1
    83    58   118    1
    84    58   119    1
    85    58   120    1
    86    59   121    1
    87    59   122    1
    88    59   123    1
    89    60    61    2
    90     1    47    1
    91     1    62    1
    92     2    63    1
    93     3    64    1
    94     4    65    1
    95     5     6    1
    96     7     8    2
    97     9    78    1
    98    15    79    1
    99    18    80    1
   100    18    81    1
   101    19    82    1
   102    19    83    1
   103    20    23    1
   104    21    84    1
   105    21    85    1
   106    22    86    1
   107    22    87    1
   108    27    45    1
   109    28    34    1
   110    32    58    1
   111    33    46    2
   112    36    51    1
   113    36    66    1
   114    37    52    1
   115    37    67    1
   116    38    53    1
   117    38    68    1
   118    42    48    1
   119    42    72    1
   120    43    44    2
   121    60    73    1
   122    61    74    1
   123    39    69    1
   124    39    57    1
   125    40    70    1
   126    40    50    1
   127    41    71    1
   128    41    49    1
