@<TRIPOS>MOLECULE
*****
 123 128 0 0 0
SMALL
GASTEIGER

@<TRIPOS>ATOM
     1 C         4.325983   2.635538   -2.086038 C.3        1 UNL1     0.0009
     2 C         5.392783   2.890384   -3.580705 C.2        1 UNL1     -0.0787
     3 C         6.619808   2.636921   -4.306109 C.2        1 UNL1     -0.0649
     4 C         7.018189   3.121904   -5.878509 C.2        1 UNL1     -0.0542
     5 C         7.862238   2.878207   -6.989936 C.2        1 UNL1     0.0115
     6 C         9.116629   2.096114   -7.467593 C.3        1 UNL1     -0.0348
     7 C         7.443785   3.461369   -8.425836 C.2        1 UNL1     0.2441
     8 O         7.953139   4.461782   -8.9119 O.2        1 UNL1     -0.2702
     9 N         6.643721   2.602868   -9.199802 N.am        1 UNL1     -0.2772
     10 C         5.312251   2.799453   -8.913682 C.2        1 UNL1     0.1049
     11 C         4.846045   2.169003   -7.850947 C.2        1 UNL1     0.0801
     12 C         3.58064   4.586868   -8.660683 C.ar        1 UNL1     0.0753
     13 C         3.25166   3.981318   -7.406215 C.ar        1 UNL1     0.0305
     14 C         3.785118   2.675967   -7.023422 C.2        1 UNL1     0.0924
     15 N         5.402608   1.194315   -7.111522 N.pl3        1 UNL1     -0.3170
     16 C         4.412835   0.73455   -6.173855 C.3        1 UNL1     0.1275
     17 N         3.513927   1.927483   -5.957985 N.2        1 UNL1     -0.2557
     18 C         3.563609   -0.311634   -6.889408 C.3        1 UNL1     0.0016
     19 C         4.480464   -1.402367   -7.419757 C.3        1 UNL1     0.0026
     20 N         5.203614   -1.990598   -6.3008 N.3        1 UNL1     -0.3018
     21 C         6.001892   -1.049326   -5.512682 C.3        1 UNL1     0.0026
     22 C         5.060246   0.035009   -4.985979 C.3        1 UNL1     0.0016
     23 C         5.873689   -3.227398   -6.650042 C.3        1 UNL1     0.0012
     24 C         4.848261   -4.34738   -6.88646 C.3        1 UNL1     -0.0339
     25 C         5.393532   -5.713062   -6.437407 C.3        1 UNL1     -0.0615
     26 C         3.540526   -4.011467   -6.190923 C.3        1 UNL1     -0.0615
     27 C         2.97506   5.772292   -9.070756 C.ar        1 UNL1     0.1347
     28 C         2.000951   6.420787   -8.332775 C.ar        1 UNL1     0.0342
     29 C         1.728595   5.83281   -7.079272 C.ar        1 UNL1     0.1435
     30 C         2.353596   4.665321   -6.639314 C.ar        1 UNL1     0.0774
     31 O         0.727249   6.283221   -6.292225 O.3        1 UNL1     -0.4436
     32 C         0.456479   5.197503   -5.392906 C.3        1 UNL1     0.3143
     33 C         1.732348   4.38052   -5.362716 C.2        1 UNL1     0.2504
     34 C         1.132254   7.548112   -8.817135 C.3        1 UNL1     -0.0327
     35 O         0.289632   5.759063   -4.085212 O.2        1 UNL1     -0.4528
     36 C         -2.128293   3.465362   -2.268439 C.3        1 UNL1     0.0854
     37 C         -2.012932   1.917749   -1.987178 C.3        1 UNL1     0.0236
     38 C         -2.141082   1.499839   -0.444235 C.3        1 UNL1     0.1131
     39 C         -1.253081   2.228933   0.643031 C.3        1 UNL1     0.0200
     40 C         0.361664   2.529422   0.351928 C.3        1 UNL1     0.0661
     41 C         1.498695   1.398856   -0.201778 C.3        1 UNL1     0.0091
     42 C         2.974894   1.620235   -1.268188 C.3        1 UNL1     0.0661
     43 C         4.522276   3.863554   -9.550851 C.2        1 UNL1     0.2131
     44 O         4.584108   4.043351   -10.753592 O.2        1 UNL1     -0.2851
     45 O         3.384976   6.319744   -10.284718 O.3        1 UNL1     -0.5056
     46 O         2.15244   3.671724   -4.475594 O.2        1 UNL1     -0.2836
     47 C         4.8725   3.456452   -0.887122 C.3        1 UNL1     -0.0566
     48 O         3.870964   0.833824   -0.386296 O.3        1 UNL1     -0.3909
     49 C         0.765035   0.178509   -0.711671 C.3        1 UNL1     -0.0577
     50 O         0.52811   3.755972   -0.330417 O.3        1 UNL1     -0.3910
     51 O         -2.153292   4.298014   -1.131119 O.3        1 UNL1     -0.3753
     52 C         -0.998774   1.224581   -2.954624 C.3        1 UNL1     -0.0564
     53 O         -2.379984   0.032731   -0.237248 O.3        1 UNL1     -0.4608
     54 C         -1.855311   -0.722753   0.778573 C.2        1 UNL1     0.3042
     55 O         -0.909985   -1.507638   0.714125 O.2        1 UNL1     -0.2512
     56 C         -2.512578   -0.482694   2.10789 C.3        1 UNL1     0.0332
     57 C         -2.130265   3.411183   1.268336 C.3        1 UNL1     -0.0567
     58 C         -0.660768   4.353749   -6.049692 C.3        1 UNL1     0.0210
     59 C         -3.421799   4.886027   -0.846524 C.3        1 UNL1     0.0372
     60 C         -1.091086   4.017515   -3.181943 C.2        1 UNL1     -0.0208
     61 C         -0.358562   5.128017   -3.087408 C.2        1 UNL1     0.0882
     62 H         3.550328   3.250202   -2.55854 H        1 UNL1     0.0365
     63 H         4.791784   3.610949   -4.139324 H        1 UNL1     0.0576
     64 H         7.36972   1.934889   -3.934773 H        1 UNL1     0.0615
     65 H         6.260327   3.872209   -6.119698 H        1 UNL1     0.0622
     66 H         -3.085858   3.579437   -2.795793 H        1 UNL1     0.0645
     67 H         -2.944439   1.498972   -2.406083 H        1 UNL1     0.0362
     68 H         -3.172293   1.831449   -0.248882 H        1 UNL1     0.0741
     69 H         -1.22344   1.617604   1.535111 H        1 UNL1     0.0359
     70 H         0.705794   2.737629   1.383085 H        1 UNL1     0.0600
     71 H         1.889888   1.028288   0.766006 H        1 UNL1     0.0348
     72 H         2.731999   2.618311   -0.875555 H        1 UNL1     0.0602
     73 H         -1.067185   3.440291   -4.072724 H        1 UNL1     0.0628
     74 H         -0.282742   5.742148   -2.189447 H        1 UNL1     0.1022
     75 H         9.484224   1.415258   -6.662395 H        1 UNL1     0.0279
     76 H         8.974406   1.414924   -8.303549 H        1 UNL1     0.0279
     77 H         9.991159   2.745933   -7.618037 H        1 UNL1     0.0279
     78 H         6.865369   1.634852   -8.976429 H        1 UNL1     0.1553
     79 H         6.159878   0.617656   -7.429231 H        1 UNL1     0.1484
     80 H         2.825947   -0.715641   -6.185562 H        1 UNL1     0.0317
     81 H         2.997947   0.139367   -7.711768 H        1 UNL1     0.0317
     82 H         5.174677   -1.016353   -8.18066 H        1 UNL1     0.0428
     83 H         3.854706   -2.136809   -7.927764 H        1 UNL1     0.0428
     84 H         6.470259   -1.500984   -4.632655 H        1 UNL1     0.0428
     85 H         6.847328   -0.648194   -6.08857 H        1 UNL1     0.0428
     86 H         5.649152   0.626327   -4.309576 H        1 UNL1     0.0317
     87 H         4.299609   -0.413113   -4.335046 H        1 UNL1     0.0317
     88 H         6.431843   -3.062373   -7.580915 H        1 UNL1     0.0429
     89 H         6.604664   -3.515127   -5.883451 H        1 UNL1     0.0429
     90 H         4.613708   -4.399666   -7.956256 H        1 UNL1     0.0308
     91 H         5.863977   -5.648889   -5.451676 H        1 UNL1     0.0233
     92 H         4.593828   -6.45674   -6.405401 H        1 UNL1     0.0233
     93 H         6.150494   -6.107463   -7.126096 H        1 UNL1     0.0233
     94 H         2.885482   -4.889227   -6.173842 H        1 UNL1     0.0233
     95 H         3.733203   -3.714431   -5.156221 H        1 UNL1     0.0233
     96 H         3.015379   -3.198228   -6.699676 H        1 UNL1     0.0233
     97 H         0.076024   7.302884   -8.758208 H        1 UNL1     0.0280
     98 H         1.263304   8.458501   -8.217741 H        1 UNL1     0.0280
     99 H         1.375865   7.776632   -9.867624 H        1 UNL1     0.0280
     100 H         4.317805   6.389268   -10.387758 H        1 UNL1     0.2922
     101 H         4.088561   3.583764   -0.140873 H        1 UNL1     0.0236
     102 H         5.3128   4.407714   -1.18414 H        1 UNL1     0.0236
     103 H         5.680758   2.926244   -0.356282 H        1 UNL1     0.0236
     104 H         3.31962   0.437565   0.316533 H        1 UNL1     0.2098
     105 H         0.292653   0.311222   -1.68175 H        1 UNL1     0.0234
     106 H         1.348317   -0.742105   -0.698301 H        1 UNL1     0.0234
     107 H         0.0   -0.0   0.0 H        1 UNL1     0.0234
     108 H         1.442051   3.775048   -0.674098 H        1 UNL1     0.2098
     109 H         -1.295243   1.323009   -4.00825 H        1 UNL1     0.0234
     110 H         0.029104   1.581321   -2.828343 H        1 UNL1     0.0234
     111 H         -0.931165   0.145129   -2.764466 H        1 UNL1     0.0234
     112 H         -2.694591   -1.437286   2.610852 H        1 UNL1     0.0342
     113 H         -1.928827   0.186148   2.738548 H        1 UNL1     0.0342
     114 H         -3.485917   -0.005729   1.928225 H        1 UNL1     0.0342
     115 H         -1.904134   3.568949   2.331897 H        1 UNL1     0.0234
     116 H         -2.008716   4.370294   0.761007 H        1 UNL1     0.0234
     117 H         -3.209168   3.18303   1.311434 H        1 UNL1     0.0234
     118 H         -1.617162   4.435606   -5.50415 H        1 UNL1     0.0309
     119 H         -0.826221   4.604707   -7.102236 H        1 UNL1     0.0309
     120 H         -0.446531   3.279713   -6.024097 H        1 UNL1     0.0309
     121 H         -3.24146   5.807334   -0.293325 H        1 UNL1     0.0524
     122 H         -3.97475   5.151835   -1.762836 H        1 UNL1     0.0524
     123 H         -4.027107   4.205596   -0.254317 H        1 UNL1     0.0524
@<TRIPOS>BOND
     1     1     2    1
     2     1    42    1
     3     2     3    2
     4     3     4    1
     5     4     5    2
     6     5     7    1
     7     6    75    1
     8     6    76    1
     9     6    77    1
    10     7     9   am
    11     9    10    1
    12    10    11    2
    13    10    43    1
    14    11    14    1
    15    11    15    1
    16    12    13   ar
    17    12    27   ar
    18    12    43    1
    19    13    14    1
    20    13    30   ar
    21    14    17    2
    22    15    16    1
    23    16    17    1
    24    16    18    1
    25    16    22    1
    26    18    19    1
    27    19    20    1
    28    20    21    1
    29    21    22    1
    30    23    24    1
    31    23    88    1
    32    23    89    1
    33    24    25    1
    34    24    26    1
    35    24    90    1
    36    25    91    1
    37    25    92    1
    38    25    93    1
    39    26    94    1
    40    26    95    1
    41    26    96    1
    42    27    28   ar
    43    28    29   ar
    44    29    30   ar
    45    29    31    1
    46    30    33    1
    47    31    32    1
    48    32    33    1
    49    32    35    1
    50    34    97    1
    51    34    98    1
    52    34    99    1
    53    35    61    1
    54    36    37    1
    55    36    60    1
    56    37    38    1
    57    38    39    1
    58    39    40    1
    59    40    41    1
    60    41    42    1
    61    45   100    1
    62    47   101    1
    63    47   102    1
    64    47   103    1
    65    48   104    1
    66    49   105    1
    67    49   106    1
    68    49   107    1
    69    50   108    1
    70    51    59    1
    71    52   109    1
    72    52   110    1
    73    52   111    1
    74    53    54    1
    75    54    55    2
    76    54    56    1
    77    56   112    1
    78    56   113    1
    79    56   114    1
    80    57   115    1
    81    57   116    1
    82    57   117    1
    83    58   118    1
    84    58   119    1
    85    58   120    1
    86    59   121    1
    87    59   122    1
    88    59   123    1
    89    60    61    2
    90     1    47    1
    91     1    62    1
    92     2    63    1
    93     3    64    1
    94     4    65    1
    95     5     6    1
    96     7     8    2
    97     9    78    1
    98    15    79    1
    99    18    80    1
   100    18    81    1
   101    19    82    1
   102    19    83    1
   103    20    23    1
   104    21    84    1
   105    21    85    1
   106    22    86    1
   107    22    87    1
   108    27    45    1
   109    28    34    1
   110    32    58    1
   111    33    46    2
   112    36    51    1
   113    36    66    1
   114    37    52    1
   115    37    67    1
   116    38    53    1
   117    38    68    1
   118    42    48    1
   119    42    72    1
   120    43    44    2
   121    60    73    1
   122    61    74    1
   123    39    69    1
   124    39    57    1
   125    40    70    1
   126    40    50    1
   127    41    71    1
   128    41    49    1
