@<TRIPOS>MOLECULE
*****
 123 128 0 0 0
SMALL
GASTEIGER

@<TRIPOS>ATOM
     1 C         5.165436   1.754895   0.487732 C.3        1 UNL1     0.0009
     2 C         6.601776   2.559481   -0.36468 C.2        1 UNL1     -0.0787
     3 C         7.884017   2.460244   -1.029552 C.2        1 UNL1     -0.0649
     4 C         8.760703   3.693665   -1.788797 C.2        1 UNL1     -0.0542
     5 C         9.780865   3.984139   -2.727931 C.2        1 UNL1     0.0115
     6 C         10.90997   3.356862   -3.591047 C.3        1 UNL1     -0.0348
     7 C         9.875164   5.465493   -3.33923 C.2        1 UNL1     0.2441
     8 O         10.698173   6.289087   -2.963896 O.2        1 UNL1     -0.2702
     9 N         9.125251   5.667988   -4.510886 N.am        1 UNL1     -0.2772
     10 C         7.842069   6.054569   -4.198925 C.2        1 UNL1     0.1049
     11 C         6.997008   5.083375   -3.904176 C.2        1 UNL1     0.0801
     12 C         6.541688   7.664677   -2.793971 C.ar        1 UNL1     0.0753
     13 C         5.783427   6.537565   -2.343121 C.ar        1 UNL1     0.0305
     14 C         5.901766   5.229869   -2.984198 C.2        1 UNL1     0.0924
     15 N         7.120853   3.753993   -4.05888 N.pl3        1 UNL1     -0.3170
     16 C         5.851385   3.154743   -3.743278 C.3        1 UNL1     0.1275
     17 N         5.213744   4.112611   -2.76674 N.2        1 UNL1     -0.2557
     18 C         4.999013   3.208948   -5.007487 C.3        1 UNL1     0.0016
     19 C         5.754961   2.521838   -6.133548 C.3        1 UNL1     0.0026
     20 N         6.026143   1.145239   -5.743085 N.3        1 UNL1     -0.3018
     21 C         6.789122   0.989553   -4.502927 C.3        1 UNL1     0.0026
     22 C         6.009308   1.683045   -3.384511 C.3        1 UNL1     0.0016
     23 C         6.471826   0.322475   -6.849914 C.3        1 UNL1     0.0012
     24 C         5.317009   0.06879   -7.831645 C.3        1 UNL1     -0.0339
     25 C         5.352342   1.057134   -9.008923 C.3        1 UNL1     -0.0615
     26 C         5.347566   -1.372251   -8.310443 C.3        1 UNL1     -0.0615
     27 C         6.335698   8.933945   -2.258578 C.ar        1 UNL1     0.1347
     28 C         5.376006   9.205786   -1.299859 C.ar        1 UNL1     0.0342
     29 C         4.675241   8.072233   -0.836018 C.ar        1 UNL1     0.1435
     30 C         4.896012   6.788755   -1.337183 C.ar        1 UNL1     0.0774
     31 O         3.633797   8.187675   0.016669 O.3        1 UNL1     -0.4436
     32 C         2.913253   6.953768   -0.121764 C.3        1 UNL1     0.3143
     33 C         3.927635   5.959816   -0.650252 C.2        1 UNL1     0.2504
     34 C         4.927794   10.572931   -0.863829 C.3        1 UNL1     -0.0327
     35 O         2.552454   6.521054   1.195746 O.2        1 UNL1     -0.4528
     36 C         -0.688744   4.584753   0.804 C.3        1 UNL1     0.0854
     37 C         -0.992583   3.320978   -0.089353 C.3        1 UNL1     0.0236
     38 C         -1.592363   2.061992   0.702456 C.3        1 UNL1     0.1131
     39 C         -0.866676   1.535946   2.005884 C.3        1 UNL1     0.0200
     40 C         0.794625   1.391986   2.048204 C.3        1 UNL1     0.0661
     41 C         1.755142   0.620177   0.882301 C.3        1 UNL1     0.0091
     42 C         3.462644   0.982377   0.317809 C.3        1 UNL1     0.0661
     43 C         7.492369   7.45414   -3.913855 C.2        1 UNL1     0.2131
     44 O         7.891764   8.350212   -4.635157 O.2        1 UNL1     -0.2851
     45 O         7.147251   9.968256   -2.720122 O.3        1 UNL1     -0.5056
     46 O         3.944619   4.75673   -0.515532 O.2        1 UNL1     -0.2836
     47 C         5.561586   1.330471   1.927493 C.3        1 UNL1     -0.0566
     48 O         3.912402   -0.428061   0.404394 O.3        1 UNL1     -0.3909
     49 C         0.921663   0.382803   -0.357239 C.3        1 UNL1     -0.0577
     50 O         1.393604   2.61165   2.437263 O.3        1 UNL1     -0.3910
     51 O         -0.813234   4.399526   2.195985 O.3        1 UNL1     -0.3753
     52 C         0.05248   3.157644   -1.240923 C.3        1 UNL1     -0.0564
     53 O         -2.193696   1.019543   -0.194218 O.3        1 UNL1     -0.4608
     54 C         -2.427108   -0.286293   0.149644 C.2        1 UNL1     0.3042
     55 O         -1.856964   -1.286356   -0.284692 O.2        1 UNL1     -0.2512
     56 C         -3.467416   -0.449333   1.22104 C.3        1 UNL1     0.0332
     57 C         -1.588797   2.20844   3.264641 C.3        1 UNL1     -0.0567
     58 C         1.838285   7.19437   -1.20716 C.3        1 UNL1     0.0210
     59 C         -1.127755   5.580677   2.932073 C.3        1 UNL1     0.0372
     60 C         0.639798   5.214234   0.571857 C.2        1 UNL1     -0.0208
     61 C         1.552003   5.653108   1.440198 C.2        1 UNL1     0.0882
     62 H         4.688627   2.738934   0.571582 H        1 UNL1     0.0365
     63 H         6.334571   3.613388   -0.262938 H        1 UNL1     0.0576
     64 H         8.3426   1.493074   -1.247245 H        1 UNL1     0.0615
     65 H         8.272687   4.60977   -1.445178 H        1 UNL1     0.0622
     66 H         -1.433917   5.329612   0.491033 H        1 UNL1     0.0645
     67 H         -1.858153   3.627585   -0.702003 H        1 UNL1     0.0362
     68 H         -2.539953   2.499196   1.052381 H        1 UNL1     0.0741
     69 H         -1.1974   0.525207   2.204469 H        1 UNL1     0.0359
     70 H         0.90662   0.734647   2.931619 H        1 UNL1     0.0600
     71 H         1.799439   -0.399544   1.312609 H        1 UNL1     0.0348
     72 H         3.355946   1.473702   1.295833 H        1 UNL1     0.0602
     73 H         0.757937   5.408183   -0.46529 H        1 UNL1     0.0628
     74 H         1.534212   5.445941   2.510713 H        1 UNL1     0.1022
     75 H         10.953272   2.251708   -3.436794 H        1 UNL1     0.0279
     76 H         10.79817   3.438609   -4.669883 H        1 UNL1     0.0279
     77 H         11.914765   3.661067   -3.263105 H        1 UNL1     0.0279
     78 H         9.064214   4.796267   -5.032858 H        1 UNL1     0.1553
     79 H         7.786741   3.324555   -4.674599 H        1 UNL1     0.1484
     80 H         4.03808   2.71782   -4.812122 H        1 UNL1     0.0317
     81 H         4.771615   4.244608   -5.281983 H        1 UNL1     0.0317
     82 H         6.685262   3.053131   -6.382909 H        1 UNL1     0.0428
     83 H         5.130117   2.57351   -7.025708 H        1 UNL1     0.0428
     84 H         6.910223   -0.052273   -4.190286 H        1 UNL1     0.0428
     85 H         7.818937   1.358136   -4.607546 H        1 UNL1     0.0428
     86 H         6.525586   1.436114   -2.475407 H        1 UNL1     0.0317
     87 H         5.030228   1.204972   -3.258241 H        1 UNL1     0.0317
     88 H         7.26763   0.863227   -7.378666 H        1 UNL1     0.0429
     89 H         6.905101   -0.621764   -6.495711 H        1 UNL1     0.0429
     90 H         4.363663   0.188774   -7.30349 H        1 UNL1     0.0308
     91 H         6.305768   1.005428   -9.543158 H        1 UNL1     0.0233
     92 H         4.537903   0.854154   -9.708278 H        1 UNL1     0.0233
     93 H         5.225181   2.097204   -8.685009 H        1 UNL1     0.0233
     94 H         4.653525   -1.50707   -9.147084 H        1 UNL1     0.0233
     95 H         6.351434   -1.628434   -8.66056 H        1 UNL1     0.0233
     96 H         5.06492   -2.064097   -7.512052 H        1 UNL1     0.0233
     97 H         4.127914   10.525002   -0.130941 H        1 UNL1     0.0280
     98 H         5.737442   11.14176   -0.388266 H        1 UNL1     0.0280
     99 H         4.562779   11.137657   -1.737296 H        1 UNL1     0.0280
     100 H         6.679709   10.717923   -3.044199 H        1 UNL1     0.2922
     101 H         4.698949   0.897746   2.433717 H        1 UNL1     0.0236
     102 H         6.011437   2.138108   2.503983 H        1 UNL1     0.0236
     103 H         6.318532   0.52846   1.929332 H        1 UNL1     0.0236
     104 H         4.331382   -0.550903   1.278657 H        1 UNL1     0.2098
     105 H         0.708463   1.279557   -0.933596 H        1 UNL1     0.0234
     106 H         1.291996   -0.407052   -1.010622 H        1 UNL1     0.0234
     107 H         0.0   -0.0   0.0 H        1 UNL1     0.0234
     108 H         1.200156   3.265776   1.738359 H        1 UNL1     0.2098
     109 H         1.077263   3.046313   -0.859953 H        1 UNL1     0.0234
     110 H         -0.178974   2.32811   -1.917715 H        1 UNL1     0.0234
     111 H         0.073163   4.038323   -1.89661 H        1 UNL1     0.0234
     112 H         -3.598948   -1.510432   1.453664 H        1 UNL1     0.0342
     113 H         -3.225144   0.119996   2.11715 H        1 UNL1     0.0342
     114 H         -4.422239   -0.068775   0.832899 H        1 UNL1     0.0342
     115 H         -2.65822   1.959359   3.303142 H        1 UNL1     0.0234
     116 H         -1.152477   1.932225   4.226607 H        1 UNL1     0.0234
     117 H         -1.628335   3.310096   3.21237 H        1 UNL1     0.0234
     118 H         0.936002   7.680436   -0.796511 H        1 UNL1     0.0309
     119 H         2.207048   7.781187   -2.054427 H        1 UNL1     0.0309
     120 H         1.451799   6.260712   -1.630266 H        1 UNL1     0.0309
     121 H         -0.307264   6.284103   2.792994 H        1 UNL1     0.0524
     122 H         -2.047833   6.067723   2.568371 H        1 UNL1     0.0524
     123 H         -1.245936   5.346304   3.986206 H        1 UNL1     0.0524
@<TRIPOS>BOND
     1     1     2    1
     2     1    42    1
     3     2     3    2
     4     3     4    1
     5     4     5    2
     6     5     7    1
     7     6    75    1
     8     6    76    1
     9     6    77    1
    10     7     9   am
    11     9    10    1
    12    10    11    2
    13    10    43    1
    14    11    14    1
    15    11    15    1
    16    12    13   ar
    17    12    27   ar
    18    12    43    1
    19    13    14    1
    20    13    30   ar
    21    14    17    2
    22    15    16    1
    23    16    17    1
    24    16    18    1
    25    16    22    1
    26    18    19    1
    27    19    20    1
    28    20    21    1
    29    21    22    1
    30    23    24    1
    31    23    88    1
    32    23    89    1
    33    24    25    1
    34    24    26    1
    35    24    90    1
    36    25    91    1
    37    25    92    1
    38    25    93    1
    39    26    94    1
    40    26    95    1
    41    26    96    1
    42    27    28   ar
    43    28    29   ar
    44    29    30   ar
    45    29    31    1
    46    30    33    1
    47    31    32    1
    48    32    33    1
    49    32    35    1
    50    34    97    1
    51    34    98    1
    52    34    99    1
    53    35    61    1
    54    36    37    1
    55    36    60    1
    56    37    38    1
    57    38    39    1
    58    39    40    1
    59    40    41    1
    60    41    42    1
    61    45   100    1
    62    47   101    1
    63    47   102    1
    64    47   103    1
    65    48   104    1
    66    49   105    1
    67    49   106    1
    68    49   107    1
    69    50   108    1
    70    51    59    1
    71    52   109    1
    72    52   110    1
    73    52   111    1
    74    53    54    1
    75    54    55    2
    76    54    56    1
    77    56   112    1
    78    56   113    1
    79    56   114    1
    80    57   115    1
    81    57   116    1
    82    57   117    1
    83    58   118    1
    84    58   119    1
    85    58   120    1
    86    59   121    1
    87    59   122    1
    88    59   123    1
    89    60    61    2
    90     1    47    1
    91     1    62    1
    92     2    63    1
    93     3    64    1
    94     4    65    1
    95     5     6    1
    96     7     8    2
    97     9    78    1
    98    15    79    1
    99    18    80    1
   100    18    81    1
   101    19    82    1
   102    19    83    1
   103    20    23    1
   104    21    84    1
   105    21    85    1
   106    22    86    1
   107    22    87    1
   108    27    45    1
   109    28    34    1
   110    32    58    1
   111    33    46    2
   112    36    51    1
   113    36    66    1
   114    37    52    1
   115    37    67    1
   116    38    53    1
   117    38    68    1
   118    42    48    1
   119    42    72    1
   120    43    44    2
   121    60    73    1
   122    61    74    1
   123    39    69    1
   124    39    57    1
   125    40    70    1
   126    40    50    1
   127    41    71    1
   128    41    49    1
