@<TRIPOS>MOLECULE
*****
 123 128 0 0 0
SMALL
GASTEIGER

@<TRIPOS>ATOM
     1 C         5.162462   1.76829   0.470539 C.3        1 UNL1     0.0009
     2 C         6.591978   2.581661   -0.385 C.2        1 UNL1     -0.0787
     3 C         7.871117   2.489789   -1.05687 C.2        1 UNL1     -0.0649
     4 C         8.740153   3.729783   -1.8142 C.2        1 UNL1     -0.0542
     5 C         9.75463   4.028213   -2.75699 C.2        1 UNL1     0.0115
     6 C         10.88124   3.408853   -3.629038 C.3        1 UNL1     -0.0348
     7 C         9.841287   5.512965   -3.361134 C.2        1 UNL1     0.2441
     8 O         10.663674   6.337157   -2.985749 O.2        1 UNL1     -0.2702
     9 N         9.084806   5.719151   -4.527913 N.am        1 UNL1     -0.2772
     10 C         7.802052   6.10017   -4.207463 C.2        1 UNL1     0.1049
     11 C         6.961475   5.124876   -3.913429 C.2        1 UNL1     0.0801
     12 C         6.503921   7.699036   -2.787668 C.ar        1 UNL1     0.0753
     13 C         5.751414   6.567294   -2.338779 C.ar        1 UNL1     0.0305
     14 C         5.870486   5.263274   -2.987165 C.2        1 UNL1     0.0924
     15 N         7.088595   3.796693   -4.075593 N.pl3        1 UNL1     -0.3170
     16 C         5.822588   3.191921   -3.756641 C.3        1 UNL1     0.1275
     17 N         5.186999   4.142799   -2.771968 N.2        1 UNL1     -0.2557
     18 C         4.963632   3.249978   -5.016215 C.3        1 UNL1     0.0016
     19 C         5.715936   2.570986   -6.149615 C.3        1 UNL1     0.0026
     20 N         5.993309   1.193245   -5.767617 N.3        1 UNL1     -0.3018
     21 C         6.763062   1.033556   -4.532163 C.3        1 UNL1     0.0026
     22 C         5.986833   1.718896   -3.406254 C.3        1 UNL1     0.0016
     23 C         6.435868   0.377545   -6.88091 C.3        1 UNL1     0.0012
     24 C         5.27685   0.125337   -7.858061 C.3        1 UNL1     -0.0339
     25 C         5.303169   1.119809   -9.030405 C.3        1 UNL1     -0.0615
     26 C         5.309376   -1.313129   -8.344413 C.3        1 UNL1     -0.0615
     27 C         6.296779   8.964901   -2.244717 C.ar        1 UNL1     0.1347
     28 C         5.341151   9.228863   -1.279755 C.ar        1 UNL1     0.0342
     29 C         4.646225   8.09079   -0.818201 C.ar        1 UNL1     0.1435
     30 C         4.868365   6.810586   -1.327073 C.ar        1 UNL1     0.0774
     31 O         3.608785   8.198647   0.04034 O.3        1 UNL1     -0.4436
     32 C         2.891322   6.963251   -0.100779 C.3        1 UNL1     0.3143
     33 C         3.906036   5.975154   -0.639511 C.2        1 UNL1     0.2504
     34 C         4.890987   10.592365   -0.834432 C.3        1 UNL1     -0.0327
     35 O         2.538557   6.522676   1.216302 O.2        1 UNL1     -0.4528
     36 C         -0.698658   4.578425   0.831051 C.3        1 UNL1     0.0854
     37 C         -1.003173   3.318316   -0.067236 C.3        1 UNL1     0.0236
     38 C         -1.595064   2.053443   0.72112 C.3        1 UNL1     0.1131
     39 C         -0.861149   1.522962   2.018128 C.3        1 UNL1     0.0200
     40 C         0.800779   1.38391   2.051278 C.3        1 UNL1     0.0661
     41 C         1.757705   0.621054   0.876564 C.3        1 UNL1     0.0091
     42 C         3.461196   0.991407   0.305286 C.3        1 UNL1     0.0661
     43 C         7.44953   7.497176   -3.913428 C.2        1 UNL1     0.2131
     44 O         7.842507   8.398161   -4.632129 O.2        1 UNL1     -0.2851
     45 O         7.102806   10.004062   -2.705046 O.3        1 UNL1     -0.5056
     46 O         3.927383   4.771451   -0.511068 O.2        1 UNL1     -0.2836
     47 C         5.567229   1.337714   1.906071 C.3        1 UNL1     -0.0566
     48 O         3.915699   -0.418063   0.382333 O.3        1 UNL1     -0.3909
     49 C         0.918658   0.387469   -0.359937 C.3        1 UNL1     -0.0577
     50 O         1.397998   2.603404   2.44356 O.3        1 UNL1     -0.3910
     51 O         -0.815495   4.385681   2.222679 O.3        1 UNL1     -0.3753
     52 C         0.03651   3.164112   -1.224918 C.3        1 UNL1     -0.0564
     53 O         -2.197763   1.013756   -0.177841 O.3        1 UNL1     -0.4608
     54 C         -2.425428   -0.294539   0.160481 C.2        1 UNL1     0.3042
     55 O         -1.854447   -1.290599   -0.28188 O.2        1 UNL1     -0.2512
     56 C         -3.459768   -0.466277   1.236288 C.3        1 UNL1     0.0332
     57 C         -1.578907   2.186763   3.283974 C.3        1 UNL1     -0.0567
     58 C         1.810114   7.206099   -1.179456 C.3        1 UNL1     0.0210
     59 C         -1.129876   5.562067   2.966418 C.3        1 UNL1     0.0372
     60 C         0.626755   5.213181   0.595412 C.2        1 UNL1     -0.0208
     61 C         1.542022   5.650408   1.461359 C.2        1 UNL1     0.0882
     62 H         4.683079   2.750411   0.561867 H        1 UNL1     0.0365
     63 H         6.322074   3.634204   -0.276484 H        1 UNL1     0.0576
     64 H         8.331541   1.525165   -1.281858 H        1 UNL1     0.0615
     65 H         8.251093   4.642605   -1.463402 H        1 UNL1     0.0622
     66 H         -1.447687   5.322578   0.525703 H        1 UNL1     0.0645
     67 H         -1.872783   3.62539   -0.673902 H        1 UNL1     0.0362
     68 H         -2.542194   2.485924   1.078092 H        1 UNL1     0.0741
     69 H         -1.187766   0.510203   2.213188 H        1 UNL1     0.0359
     70 H         0.919277   0.722398   2.930721 H        1 UNL1     0.0600
     71 H         1.807309   -0.400719   1.301391 H        1 UNL1     0.0348
     72 H         3.357975   1.47738   1.286352 H        1 UNL1     0.0602
     73 H         0.739022   5.412809   -0.441311 H        1 UNL1     0.0628
     74 H         1.530312   5.437701   2.530871 H        1 UNL1     0.1022
     75 H         10.930792   2.303478   -3.478292 H        1 UNL1     0.0279
     76 H         10.762236   3.493184   -4.706905 H        1 UNL1     0.0279
     77 H         11.886623   3.716921   -3.30655 H        1 UNL1     0.0279
     78 H         9.023779   4.849934   -5.054046 H        1 UNL1     0.1553
     79 H         7.75265   3.372473   -4.696883 H        1 UNL1     0.1484
     80 H         4.005211   2.754895   -4.818505 H        1 UNL1     0.0317
     81 H         4.731674   4.286327   -5.284224 H        1 UNL1     0.0317
     82 H         6.643327   3.106416   -6.400957 H        1 UNL1     0.0428
     83 H         5.086405   2.625304   -7.038316 H        1 UNL1     0.0428
     84 H         6.888937   -0.009481   -4.225502 H        1 UNL1     0.0428
     85 H         7.791199   1.405845   -4.640108 H        1 UNL1     0.0428
     86 H         6.508483   1.468901   -2.501063 H        1 UNL1     0.0317
     87 H         5.009874   1.237166   -3.277478 H        1 UNL1     0.0317
     88 H         7.227313   0.923452   -7.410904 H        1 UNL1     0.0429
     89 H         6.873824   -0.567157   -6.53377 H        1 UNL1     0.0429
     90 H         4.325842   0.239672   -7.324466 H        1 UNL1     0.0308
     91 H         6.254018   1.073782   -9.569729 H        1 UNL1     0.0233
     92 H         4.485807   0.917907   -9.726654 H        1 UNL1     0.0233
     93 H         5.174479   2.157807   -8.700506 H        1 UNL1     0.0233
     94 H         4.611502   -1.445796   -9.178204 H        1 UNL1     0.0233
     95 H         6.312228   -1.564417   -8.700931 H        1 UNL1     0.0233
     96 H         5.032913   -2.009928   -7.548166 H        1 UNL1     0.0233
     97 H         4.094997   10.538213   -0.097752 H        1 UNL1     0.0280
     98 H         5.701301   11.161243   -0.360064 H        1 UNL1     0.0280
     99 H         4.519807   11.160434   -1.70312 H        1 UNL1     0.0280
     100 H         6.631331   10.753936   -3.022887 H        1 UNL1     0.2922
     101 H         4.708506   0.89974   2.414431 H        1 UNL1     0.0236
     102 H         6.017537   2.143767   2.484416 H        1 UNL1     0.0236
     103 H         6.326624   0.538042   1.899945 H        1 UNL1     0.0236
     104 H         4.339497   -0.544093   1.253816 H        1 UNL1     0.2098
     105 H         0.699787   1.286506   -0.930586 H        1 UNL1     0.0234
     106 H         1.288075   -0.39788   -1.019244 H        1 UNL1     0.0234
     107 H         0.0   -0.0   0.0 H        1 UNL1     0.0234
     108 H         1.198997   3.260505   1.74902 H        1 UNL1     0.2098
     109 H         1.063554   3.053989   -0.84973 H        1 UNL1     0.0234
     110 H         -0.195847   2.337349   -1.904784 H        1 UNL1     0.0234
     111 H         0.051164   4.0482   -1.876163 H        1 UNL1     0.0234
     112 H         -3.586869   -1.528956   1.464117 H        1 UNL1     0.0342
     113 H         -3.21468   0.099194   2.134073 H        1 UNL1     0.0342
     114 H         -4.417712   -0.08668   0.854959 H        1 UNL1     0.0342
     115 H         -2.647354   1.934192   3.326618 H        1 UNL1     0.0234
     116 H         -1.136855   1.906966   4.242281 H        1 UNL1     0.0234
     117 H         -1.622079   3.288546   3.23757 H        1 UNL1     0.0234
     118 H         0.908451   7.687269   -0.76174 H        1 UNL1     0.0309
     119 H         2.172765   7.798386   -2.025554 H        1 UNL1     0.0309
     120 H         1.424337   6.273435   -1.605391 H        1 UNL1     0.0309
     121 H         -0.312258   6.268723   2.826798 H        1 UNL1     0.0524
     122 H         -2.053278   6.048132   2.609897 H        1 UNL1     0.0524
     123 H         -1.241974   5.321928   4.019917 H        1 UNL1     0.0524
@<TRIPOS>BOND
     1     1     2    1
     2     1    42    1
     3     2     3    2
     4     3     4    1
     5     4     5    2
     6     5     7    1
     7     6    75    1
     8     6    76    1
     9     6    77    1
    10     7     9   am
    11     9    10    1
    12    10    11    2
    13    10    43    1
    14    11    14    1
    15    11    15    1
    16    12    13   ar
    17    12    27   ar
    18    12    43    1
    19    13    14    1
    20    13    30   ar
    21    14    17    2
    22    15    16    1
    23    16    17    1
    24    16    18    1
    25    16    22    1
    26    18    19    1
    27    19    20    1
    28    20    21    1
    29    21    22    1
    30    23    24    1
    31    23    88    1
    32    23    89    1
    33    24    25    1
    34    24    26    1
    35    24    90    1
    36    25    91    1
    37    25    92    1
    38    25    93    1
    39    26    94    1
    40    26    95    1
    41    26    96    1
    42    27    28   ar
    43    28    29   ar
    44    29    30   ar
    45    29    31    1
    46    30    33    1
    47    31    32    1
    48    32    33    1
    49    32    35    1
    50    34    97    1
    51    34    98    1
    52    34    99    1
    53    35    61    1
    54    36    37    1
    55    36    60    1
    56    37    38    1
    57    38    39    1
    58    39    40    1
    59    40    41    1
    60    41    42    1
    61    45   100    1
    62    47   101    1
    63    47   102    1
    64    47   103    1
    65    48   104    1
    66    49   105    1
    67    49   106    1
    68    49   107    1
    69    50   108    1
    70    51    59    1
    71    52   109    1
    72    52   110    1
    73    52   111    1
    74    53    54    1
    75    54    55    2
    76    54    56    1
    77    56   112    1
    78    56   113    1
    79    56   114    1
    80    57   115    1
    81    57   116    1
    82    57   117    1
    83    58   118    1
    84    58   119    1
    85    58   120    1
    86    59   121    1
    87    59   122    1
    88    59   123    1
    89    60    61    2
    90     1    47    1
    91     1    62    1
    92     2    63    1
    93     3    64    1
    94     4    65    1
    95     5     6    1
    96     7     8    2
    97     9    78    1
    98    15    79    1
    99    18    80    1
   100    18    81    1
   101    19    82    1
   102    19    83    1
   103    20    23    1
   104    21    84    1
   105    21    85    1
   106    22    86    1
   107    22    87    1
   108    27    45    1
   109    28    34    1
   110    32    58    1
   111    33    46    2
   112    36    51    1
   113    36    66    1
   114    37    52    1
   115    37    67    1
   116    38    53    1
   117    38    68    1
   118    42    48    1
   119    42    72    1
   120    43    44    2
   121    60    73    1
   122    61    74    1
   123    39    69    1
   124    39    57    1
   125    40    70    1
   126    40    50    1
   127    41    71    1
   128    41    49    1
