@<TRIPOS>MOLECULE
*****
 123 128 0 0 0
SMALL
GASTEIGER

@<TRIPOS>ATOM
     1 C         -0.349339   0.590351   4.071211 C.3        1 UNL1     0.0009
     2 C         -1.652494   -0.070327   5.212407 C.2        1 UNL1     -0.0787
     3 C         -2.912073   0.090689   5.907807 C.2        1 UNL1     -0.0649
     4 C         -3.743057   -1.056751   6.83474 C.2        1 UNL1     -0.0542
     5 C         -4.998963   -1.418807   7.38127 C.2        1 UNL1     0.0115
     6 C         -6.448155   -0.9215   7.637883 C.3        1 UNL1     -0.0348
     7 C         -5.230392   -2.933561   7.859757 C.2        1 UNL1     0.2441
     8 O         -5.199731   -3.272244   9.034865 O.2        1 UNL1     -0.2702
     9 N         -5.727856   -3.795392   6.866818 N.am        1 UNL1     -0.2772
     10 C         -4.69262   -4.351857   6.151307 C.2        1 UNL1     0.1049
     11 C         -4.199542   -3.615073   5.172407 C.2        1 UNL1     0.0801
     12 C         -2.501462   -5.527897   6.421654 C.ar        1 UNL1     0.0753
     13 C         -1.962416   -4.567664   5.507329 C.ar        1 UNL1     0.0305
     14 C         -2.825134   -3.661478   4.752614 C.2        1 UNL1     0.0924
     15 N         -4.675647   -2.488434   4.615149 N.pl3        1 UNL1     -0.3170
     16 C         -3.854913   -2.181936   3.473786 C.3        1 UNL1     0.1275
     17 N         -2.511488   -2.786761   3.801077 N.2        1 UNL1     -0.2557
     18 C         -4.403086   -2.980644   2.295112 C.3        1 UNL1     0.0016
     19 C         -5.874582   -2.640784   2.119661 C.3        1 UNL1     0.0026
     20 N         -5.999229   -1.208776   1.88547 N.3        1 UNL1     -0.3018
     21 C         -5.443398   -0.355942   2.938131 C.3        1 UNL1     0.0026
     22 C         -3.963719   -0.710982   3.094309 C.3        1 UNL1     0.0016
     23 C         -7.314766   -0.827228   1.411734 C.3        1 UNL1     0.0012
     24 C         -7.534551   -1.323972   -0.025867 C.3        1 UNL1     -0.0339
     25 C         -8.402247   -0.344254   -0.832907 C.3        1 UNL1     -0.0615
     26 C         -6.197038   -1.572864   -0.701064 C.3        1 UNL1     -0.0615
     27 C         -1.684774   -6.467928   7.045739 C.ar        1 UNL1     0.1347
     28 C         -0.326214   -6.570646   6.80529 C.ar        1 UNL1     0.0342
     29 C         0.190623   -5.583852   5.939104 C.ar        1 UNL1     0.1435
     30 C         -0.609411   -4.613363   5.334688 C.ar        1 UNL1     0.0774
     31 O         1.474523   -5.616314   5.520114 O.3        1 UNL1     -0.4436
     32 C         1.492595   -4.795346   4.342591 C.3        1 UNL1     0.3143
     33 C         0.299129   -3.872498   4.484723 C.2        1 UNL1     0.2504
     34 C         0.562923   -7.702489   7.239419 C.3        1 UNL1     -0.0327
     35 O         2.665192   -3.97482   4.413334 O.2        1 UNL1     -0.4528
     36 C         3.703463   -3.331421   0.819434 C.3        1 UNL1     0.0854
     37 C         2.87593   -2.681875   -0.355641 C.3        1 UNL1     0.0236
     38 C         3.576799   -1.423601   -1.060816 C.3        1 UNL1     0.1131
     39 C         4.125377   -0.232627   -0.175992 C.3        1 UNL1     0.0200
     40 C         3.222703   0.361167   1.094845 C.3        1 UNL1     0.0661
     41 C         1.589271   0.813883   1.027332 C.3        1 UNL1     0.0091
     42 C         0.277339   0.730192   2.306876 C.3        1 UNL1     0.0661
     43 C         -3.972682   -5.547265   6.615034 C.2        1 UNL1     0.2131
     44 O         -4.584378   -6.515189   7.029387 O.2        1 UNL1     -0.2851
     45 O         -2.281326   -7.337344   7.956606 O.3        1 UNL1     -0.5056
     46 O         0.142819   -2.765697   4.019521 O.2        1 UNL1     -0.2836
     47 C         0.511168   1.659507   4.796758 C.3        1 UNL1     -0.0566
     48 O         -0.198249   2.115122   2.072566 O.3        1 UNL1     -0.3909
     49 C         0.988685   0.284148   -0.2557 C.3        1 UNL1     -0.0577
     50 O         3.471067   -0.377314   2.274117 O.3        1 UNL1     -0.3910
     51 O         4.860222   -2.631417   1.218601 O.3        1 UNL1     -0.3753
     52 C         1.337589   -2.72972   -0.079654 C.3        1 UNL1     -0.0564
     53 O         2.95601   -1.048775   -2.374762 O.3        1 UNL1     -0.4608
     54 C         2.785709   0.229723   -2.837764 C.2        1 UNL1     0.3042
     55 O         3.532911   0.858855   -3.585908 O.2        1 UNL1     -0.2512
     56 C         1.498224   0.863663   -2.393674 C.3        1 UNL1     0.0332
     57 C         5.682865   -0.495995   0.075092 C.3        1 UNL1     -0.0567
     58 C         1.250499   -5.743116   3.144822 C.3        1 UNL1     0.0210
     59 C         6.092054   -3.245442   0.84253 C.3        1 UNL1     0.0372
     60 C         2.92459   -3.613845   2.055862 C.2        1 UNL1     -0.0208
     61 C         3.224264   -3.390758   3.336163 C.2        1 UNL1     0.0882
     62 H         0.188338   -0.360813   4.165561 H        1 UNL1     0.0365
     63 H         -1.199782   -1.018002   5.511463 H        1 UNL1     0.0576
     64 H         -3.544701   0.967165   5.750715 H        1 UNL1     0.0615
     65 H         -3.003175   -1.844984   6.998282 H        1 UNL1     0.0622
     66 H         4.014955   -4.310603   0.429279 H        1 UNL1     0.0645
     67 H         2.916848   -3.435729   -1.160992 H        1 UNL1     0.0362
     68 H         4.470509   -1.917362   -1.471918 H        1 UNL1     0.0741
     69 H         4.251491   0.638672   -0.804754 H        1 UNL1     0.0359
     70 H         3.737665   1.326938   1.259655 H        1 UNL1     0.0600
     71 H         1.696708   1.890163   0.788507 H        1 UNL1     0.0348
     72 H         1.232947   0.676082   2.848356 H        1 UNL1     0.0602
     73 H         2.060773   -4.177185   1.803442 H        1 UNL1     0.0628
     74 H         4.057568   -2.77494   3.676178 H        1 UNL1     0.1022
     75 H         -6.438221   0.103994   8.079808 H        1 UNL1     0.0279
     76 H         -7.07923   -0.792767   6.761389 H        1 UNL1     0.0279
     77 H         -6.960323   -1.492353   8.426242 H        1 UNL1     0.0279
     78 H         -6.303318   -3.268245   6.213337 H        1 UNL1     0.1553
     79 H         -5.629464   -2.187272   4.695561 H        1 UNL1     0.1484
     80 H         -3.825102   -2.733901   1.396324 H        1 UNL1     0.0317
     81 H         -4.280942   -4.056415   2.460793 H        1 UNL1     0.0317
     82 H         -6.471067   -2.953004   2.98951 H        1 UNL1     0.0428
     83 H         -6.24585   -3.222446   1.275339 H        1 UNL1     0.0428
     84 H         -5.477945   0.71202   2.701328 H        1 UNL1     0.0428
     85 H         -6.011504   -0.440026   3.874882 H        1 UNL1     0.0428
     86 H         -3.561077   0.018057   3.772814 H        1 UNL1     0.0317
     87 H         -3.42906   -0.50895   2.158135 H        1 UNL1     0.0317
     88 H         -8.062326   -1.299141   2.062692 H        1 UNL1     0.0429
     89 H         -7.465145   0.257695   1.48315 H        1 UNL1     0.0429
     90 H         -8.040765   -2.296135   0.003472 H        1 UNL1     0.0308
     91 H         -8.070585   0.688953   -0.692958 H        1 UNL1     0.0233
     92 H         -8.373338   -0.589149   -1.897237 H        1 UNL1     0.0233
     93 H         -9.458203   -0.381973   -0.539023 H        1 UNL1     0.0233
     94 H         -6.350708   -1.889691   -1.738292 H        1 UNL1     0.0233
     95 H         -5.607739   -0.651708   -0.713732 H        1 UNL1     0.0233
     96 H         -5.627068   -2.349448   -0.183357 H        1 UNL1     0.0233
     97 H         1.049632   -8.184532   6.396816 H        1 UNL1     0.0280
     98 H         1.371655   -7.363496   7.899942 H        1 UNL1     0.0280
     99 H         -0.036338   -8.459311   7.771587 H        1 UNL1     0.0280
     100 H         -2.827769   -6.91804   8.597861 H        1 UNL1     0.2922
     101 H         1.479925   1.235214   5.059704 H        1 UNL1     0.0236
     102 H         0.010424   2.100438   5.658046 H        1 UNL1     0.0236
     103 H         0.74854   2.514326   4.141677 H        1 UNL1     0.0236
     104 H         0.586643   2.671488   1.901182 H        1 UNL1     0.2098
     105 H         0.92782   1.014849   -1.05831 H        1 UNL1     0.0234
     106 H         1.435786   -0.640713   -0.619925 H        1 UNL1     0.0234
     107 H         0.0   -0.0   0.0 H        1 UNL1     0.0234
     108 H         4.425669   -0.303877   2.466754 H        1 UNL1     0.2098
     109 H         0.965485   -3.758491   0.024653 H        1 UNL1     0.0234
     110 H         1.038684   -2.141545   0.794674 H        1 UNL1     0.0234
     111 H         0.764261   -2.288607   -0.905887 H        1 UNL1     0.0234
     112 H         1.024363   1.374301   -3.237504 H        1 UNL1     0.0342
     113 H         0.81966   0.140664   -1.943489 H        1 UNL1     0.0342
     114 H         1.732914   1.619368   -1.631443 H        1 UNL1     0.0342
     115 H         6.250811   0.442444   0.138001 H        1 UNL1     0.0234
     116 H         5.895969   -1.070005   0.979054 H        1 UNL1     0.0234
     117 H         6.186873   -0.993784   -0.771149 H        1 UNL1     0.0234
     118 H         2.152498   -5.858719   2.51869 H        1 UNL1     0.0309
     119 H         0.89408   -6.733378   3.445737 H        1 UNL1     0.0309
     120 H         0.504774   -5.352552   2.443781 H        1 UNL1     0.0309
     121 H         6.496773   -3.740144   1.725043 H        1 UNL1     0.0524
     122 H         5.955646   -4.014508   0.064091 H        1 UNL1     0.0524
     123 H         6.790012   -2.496302   0.479573 H        1 UNL1     0.0524
@<TRIPOS>BOND
     1     1     2    1
     2     1    42    1
     3     2     3    2
     4     3     4    1
     5     4     5    2
     6     5     7    1
     7     6    75    1
     8     6    76    1
     9     6    77    1
    10     7     9   am
    11     9    10    1
    12    10    11    2
    13    10    43    1
    14    11    14    1
    15    11    15    1
    16    12    13   ar
    17    12    27   ar
    18    12    43    1
    19    13    14    1
    20    13    30   ar
    21    14    17    2
    22    15    16    1
    23    16    17    1
    24    16    18    1
    25    16    22    1
    26    18    19    1
    27    19    20    1
    28    20    21    1
    29    21    22    1
    30    23    24    1
    31    23    88    1
    32    23    89    1
    33    24    25    1
    34    24    26    1
    35    24    90    1
    36    25    91    1
    37    25    92    1
    38    25    93    1
    39    26    94    1
    40    26    95    1
    41    26    96    1
    42    27    28   ar
    43    28    29   ar
    44    29    30   ar
    45    29    31    1
    46    30    33    1
    47    31    32    1
    48    32    33    1
    49    32    35    1
    50    34    97    1
    51    34    98    1
    52    34    99    1
    53    35    61    1
    54    36    37    1
    55    36    60    1
    56    37    38    1
    57    38    39    1
    58    39    40    1
    59    40    41    1
    60    41    42    1
    61    45   100    1
    62    47   101    1
    63    47   102    1
    64    47   103    1
    65    48   104    1
    66    49   105    1
    67    49   106    1
    68    49   107    1
    69    50   108    1
    70    51    59    1
    71    52   109    1
    72    52   110    1
    73    52   111    1
    74    53    54    1
    75    54    55    2
    76    54    56    1
    77    56   112    1
    78    56   113    1
    79    56   114    1
    80    57   115    1
    81    57   116    1
    82    57   117    1
    83    58   118    1
    84    58   119    1
    85    58   120    1
    86    59   121    1
    87    59   122    1
    88    59   123    1
    89    60    61    2
    90     1    47    1
    91     1    62    1
    92     2    63    1
    93     3    64    1
    94     4    65    1
    95     5     6    1
    96     7     8    2
    97     9    78    1
    98    15    79    1
    99    18    80    1
   100    18    81    1
   101    19    82    1
   102    19    83    1
   103    20    23    1
   104    21    84    1
   105    21    85    1
   106    22    86    1
   107    22    87    1
   108    27    45    1
   109    28    34    1
   110    32    58    1
   111    33    46    2
   112    36    51    1
   113    36    66    1
   114    37    52    1
   115    37    67    1
   116    38    53    1
   117    38    68    1
   118    42    48    1
   119    42    72    1
   120    43    44    2
   121    60    73    1
   122    61    74    1
   123    39    69    1
   124    39    57    1
   125    40    70    1
   126    40    50    1
   127    41    71    1
   128    41    49    1
