@<TRIPOS>MOLECULE
*****
 123 128 0 0 0
SMALL
GASTEIGER

@<TRIPOS>ATOM
     1 C         -3.40405   2.982392   -2.425861 C.3        1 UNL1     0.0009
     2 C         -4.204293   4.654326   -2.389996 C.2        1 UNL1     -0.0787
     3 C         -5.225808   5.54734   -1.884943 C.2        1 UNL1     -0.0649
     4 C         -5.396495   7.205767   -2.179634 C.2        1 UNL1     -0.0542
     5 C         -5.976486   8.413272   -1.718527 C.2        1 UNL1     0.0115
     6 C         -6.991453   9.013969   -0.707424 C.3        1 UNL1     -0.0348
     7 C         -5.393093   9.809544   -2.254314 C.2        1 UNL1     0.2441
     8 O         -5.947595   10.474695   -3.11839 O.2        1 UNL1     -0.2702
     9 N         -4.345993   10.344755   -1.484067 N.am        1 UNL1     -0.2772
     10 C         -3.133923   9.858813   -1.917736 C.2        1 UNL1     0.1049
     11 C         -2.782176   8.673582   -1.453274 C.2        1 UNL1     0.0801
     12 C         -1.763491   9.50037   -3.979476 C.ar        1 UNL1     0.0753
     13 C         -1.583974   8.153001   -3.531168 C.ar        1 UNL1     0.0305
     14 C         -1.978493   7.73456   -2.187921 C.2        1 UNL1     0.0924
     15 N         -3.313754   7.943327   -0.457944 N.pl3        1 UNL1     -0.3170
     16 C         -2.455681   6.809447   -0.238216 C.3        1 UNL1     0.1275
     17 N         -1.79919   6.567644   -1.57548 N.2        1 UNL1     -0.2557
     18 C         -1.343622   7.25986   0.704204 C.3        1 UNL1     0.0016
     19 C         -1.975042   7.823422   1.967254 C.3        1 UNL1     0.0026
     20 N         -2.795599   6.78893   2.581697 N.3        1 UNL1     -0.3018
     21 C         -3.855868   6.248017   1.728695 C.3        1 UNL1     0.0026
     22 C         -3.198738   5.683174   0.468128 C.3        1 UNL1     0.0016
     23 C         -3.198735   7.118202   3.934363 C.3        1 UNL1     0.0012
     24 C         -4.69922   7.446533   3.984367 C.3        1 UNL1     -0.0339
     25 C         -5.384703   7.150777   2.640233 C.3        1 UNL1     -0.0615
     26 C         -5.359357   6.693367   5.126182 C.3        1 UNL1     -0.0615
     27 C         -1.276052   9.921055   -5.214605 C.ar        1 UNL1     0.1347
     28 C         -0.561343   9.099002   -6.067524 C.ar        1 UNL1     0.0342
     29 C         -0.439284   7.763973   -5.627113 C.ar        1 UNL1     0.1435
     30 C         -0.953745   7.319121   -4.408648 C.ar        1 UNL1     0.0774
     31 O         0.322341   6.868934   -6.293326 O.3        1 UNL1     -0.4436
     32 C         0.58186   5.830401   -5.336784 C.3        1 UNL1     0.3143
     33 C         -0.541979   5.933369   -4.325549 C.2        1 UNL1     0.2504
     34 C         0.204038   9.541975   -7.283282 C.3        1 UNL1     -0.0327
     35 O         0.420529   4.577795   -6.013691 O.2        1 UNL1     -0.4528
     36 C         2.777719   2.152499   -4.290414 C.3        1 UNL1     0.0854
     37 C         2.844122   1.737941   -2.770133 C.3        1 UNL1     0.0236
     38 C         2.747656   0.161041   -2.494766 C.3        1 UNL1     0.1131
     39 C         1.576858   -0.679615   -3.146531 C.3        1 UNL1     0.0200
     40 C         0.016532   -0.08991   -3.154794 C.3        1 UNL1     0.0661
     41 C         -0.818627   0.529776   -1.814604 C.3        1 UNL1     0.0091
     42 C         -2.090295   1.847872   -1.71027 C.3        1 UNL1     0.0661
     43 C         -2.407595   10.458437   -3.047007 C.2        1 UNL1     0.2131
     44 O         -2.273709   11.666257   -3.124352 O.2        1 UNL1     -0.2851
     45 O         -1.53301   11.236486   -5.595462 O.3        1 UNL1     -0.5056
     46 O         -1.007584   5.062433   -3.625165 O.2        1 UNL1     -0.2836
     47 C         -4.277166   1.983832   -3.232415 C.3        1 UNL1     -0.0566
     48 O         -3.005912   1.054768   -0.854846 O.3        1 UNL1     -0.3909
     49 C         0.169293   0.780353   -0.697143 C.3        1 UNL1     -0.0577
     50 O         -0.202368   0.732682   -4.283133 O.3        1 UNL1     -0.3910
     51 O         2.469509   1.118679   -5.197969 O.3        1 UNL1     -0.3753
     52 C         2.139245   2.78713   -1.849645 C.3        1 UNL1     -0.0564
     53 O         3.159959   -0.2325   -1.106437 O.3        1 UNL1     -0.4608
     54 C         3.759161   0.592619   -0.190977 C.2        1 UNL1     0.3042
     55 O         4.773246   0.365703   0.467794 O.2        1 UNL1     -0.2512
     56 C         3.090564   1.931459   -0.059832 C.3        1 UNL1     0.0332
     57 C         2.138697   -1.320164   -4.500122 C.3        1 UNL1     -0.0567
     58 C         1.913475   6.198516   -4.64193 C.3        1 UNL1     0.0210
     59 C         2.822381   1.386751   -6.554245 C.3        1 UNL1     0.0372
     60 C         1.855384   3.280189   -4.595003 C.2        1 UNL1     -0.0208
     61 C         0.961118   3.425314   -5.573763 C.2        1 UNL1     0.0882
     62 H         -2.655028   3.377031   -3.122953 H        1 UNL1     0.0365
     63 H         -3.624929   5.173812   -3.156117 H        1 UNL1     0.0576
     64 H         -5.91826   5.23856   -1.09864 H        1 UNL1     0.0615
     65 H         -4.727377   7.390569   -3.024389 H        1 UNL1     0.0622
     66 H         3.788002   2.518842   -4.520995 H        1 UNL1     0.0645
     67 H         3.888412   1.947854   -2.480383 H        1 UNL1     0.0362
     68 H         3.66454   -0.171232   -3.005099 H        1 UNL1     0.0741
     69 H         1.475256   -1.611593   -2.606621 H        1 UNL1     0.0359
     70 H         -0.538037   -1.021039   -3.379544 H        1 UNL1     0.0600
     71 H         -1.321242   -0.390502   -1.457638 H        1 UNL1     0.0348
     72 H         -2.074721   1.524014   -2.761074 H        1 UNL1     0.0602
     73 H         2.081443   4.098308   -3.957172 H        1 UNL1     0.0628
     74 H         0.631355   2.620832   -6.23202 H        1 UNL1     0.1022
     75 H         -7.609315   9.805709   -1.195716 H        1 UNL1     0.0279
     76 H         -7.746391   8.335376   -0.316721 H        1 UNL1     0.0279
     77 H         -6.503787   9.584566   0.096505 H        1 UNL1     0.0279
     78 H         -4.458428   10.064274   -0.512076 H        1 UNL1     0.1553
     79 H         -3.905559   8.324037   0.257429 H        1 UNL1     0.1484
     80 H         -0.695912   6.403599   0.927934 H        1 UNL1     0.0317
     81 H         -0.710119   8.016262   0.22862 H        1 UNL1     0.0317
     82 H         -2.567387   8.726407   1.75831 H        1 UNL1     0.0428
     83 H         -1.164566   8.14017   2.624407 H        1 UNL1     0.0428
     84 H         -4.405313   5.418535   2.184634 H        1 UNL1     0.0428
     85 H         -4.631355   6.99682   1.51602 H        1 UNL1     0.0428
     86 H         -3.983024   5.180468   -0.06682 H        1 UNL1     0.0317
     87 H         -2.512435   4.87037   0.735399 H        1 UNL1     0.0317
     88 H         -3.011251   6.242462   4.569362 H        1 UNL1     0.0429
     89 H         -2.599083   7.943489   4.339447 H        1 UNL1     0.0429
     90 H         -4.826511   8.510982   4.214495 H        1 UNL1     0.0308
     91 H         -6.266058   6.516476   2.774315 H        1 UNL1     0.0233
     92 H         -5.682378   8.078545   2.146022 H        1 UNL1     0.0233
     93 H         -4.721592   6.629885   1.938954 H        1 UNL1     0.0233
     94 H         -4.674892   6.623996   5.97855 H        1 UNL1     0.0233
     95 H         -6.255782   7.225827   5.456138 H        1 UNL1     0.0233
     96 H         -5.641048   5.680245   4.825844 H        1 UNL1     0.0233
     97 H         0.364995   10.615845   -7.29452 H        1 UNL1     0.0280
     98 H         1.202401   9.087925   -7.331928 H        1 UNL1     0.0280
     99 H         -0.355673   9.266917   -8.192216 H        1 UNL1     0.0280
     100 H         -0.7854   11.700682   -5.928963 H        1 UNL1     0.2922
     101 H         -5.32292   2.286454   -3.182682 H        1 UNL1     0.0236
     102 H         -4.136307   0.947565   -2.926976 H        1 UNL1     0.0236
     103 H         -4.033308   1.995437   -4.307865 H        1 UNL1     0.0236
     104 H         -3.488422   0.434168   -1.435372 H        1 UNL1     0.2098
     105 H         1.212088   0.734656   -1.000955 H        1 UNL1     0.0234
     106 H         -0.01657   1.685747   -0.119523 H        1 UNL1     0.0234
     107 H         0.0   0.0   0.0 H        1 UNL1     0.0234
     108 H         -0.407769   1.628718   -3.953439 H        1 UNL1     0.2098
     109 H         2.843505   3.27866   -1.163986 H        1 UNL1     0.0234
     110 H         1.583011   3.546387   -2.409891 H        1 UNL1     0.0234
     111 H         1.379547   2.318621   -1.209876 H        1 UNL1     0.0234
     112 H         2.206771   1.970763   -0.703812 H        1 UNL1     0.0342
     113 H         2.832024   2.160713   0.972856 H        1 UNL1     0.0342
     114 H         3.793812   2.701501   -0.405724 H        1 UNL1     0.0342
     115 H         1.329248   -1.575755   -5.197727 H        1 UNL1     0.0234
     116 H         2.843339   -0.680302   -5.03501 H        1 UNL1     0.0234
     117 H         2.614884   -2.305276   -4.356103 H        1 UNL1     0.0234
     118 H         2.7858   6.013642   -5.292988 H        1 UNL1     0.0309
     119 H         1.942379   7.234641   -4.290061 H        1 UNL1     0.0309
     120 H         2.116347   5.574575   -3.764636 H        1 UNL1     0.0309
     121 H         3.444377   2.281407   -6.562428 H        1 UNL1     0.0524
     122 H         3.410893   0.56917   -7.002857 H        1 UNL1     0.0524
     123 H         1.928552   1.546183   -7.150688 H        1 UNL1     0.0524
@<TRIPOS>BOND
     1     1     2    1
     2     1    42    1
     3     2     3    2
     4     3     4    1
     5     4     5    2
     6     5     7    1
     7     6    75    1
     8     6    76    1
     9     6    77    1
    10     7     9   am
    11     9    10    1
    12    10    11    2
    13    10    43    1
    14    11    14    1
    15    11    15    1
    16    12    13   ar
    17    12    27   ar
    18    12    43    1
    19    13    14    1
    20    13    30   ar
    21    14    17    2
    22    15    16    1
    23    16    17    1
    24    16    18    1
    25    16    22    1
    26    18    19    1
    27    19    20    1
    28    20    21    1
    29    21    22    1
    30    23    24    1
    31    23    88    1
    32    23    89    1
    33    24    25    1
    34    24    26    1
    35    24    90    1
    36    25    91    1
    37    25    92    1
    38    25    93    1
    39    26    94    1
    40    26    95    1
    41    26    96    1
    42    27    28   ar
    43    28    29   ar
    44    29    30   ar
    45    29    31    1
    46    30    33    1
    47    31    32    1
    48    32    33    1
    49    32    35    1
    50    34    97    1
    51    34    98    1
    52    34    99    1
    53    35    61    1
    54    36    37    1
    55    36    60    1
    56    37    38    1
    57    38    39    1
    58    39    40    1
    59    40    41    1
    60    41    42    1
    61    45   100    1
    62    47   101    1
    63    47   102    1
    64    47   103    1
    65    48   104    1
    66    49   105    1
    67    49   106    1
    68    49   107    1
    69    50   108    1
    70    51    59    1
    71    52   109    1
    72    52   110    1
    73    52   111    1
    74    53    54    1
    75    54    55    2
    76    54    56    1
    77    56   112    1
    78    56   113    1
    79    56   114    1
    80    57   115    1
    81    57   116    1
    82    57   117    1
    83    58   118    1
    84    58   119    1
    85    58   120    1
    86    59   121    1
    87    59   122    1
    88    59   123    1
    89    60    61    2
    90     1    47    1
    91     1    62    1
    92     2    63    1
    93     3    64    1
    94     4    65    1
    95     5     6    1
    96     7     8    2
    97     9    78    1
    98    15    79    1
    99    18    80    1
   100    18    81    1
   101    19    82    1
   102    19    83    1
   103    20    23    1
   104    21    84    1
   105    21    85    1
   106    22    86    1
   107    22    87    1
   108    27    45    1
   109    28    34    1
   110    32    58    1
   111    33    46    2
   112    36    51    1
   113    36    66    1
   114    37    52    1
   115    37    67    1
   116    38    53    1
   117    38    68    1
   118    42    48    1
   119    42    72    1
   120    43    44    2
   121    60    73    1
   122    61    74    1
   123    39    69    1
   124    39    57    1
   125    40    70    1
   126    40    50    1
   127    41    71    1
   128    41    49    1
