@<TRIPOS>MOLECULE
*****
 123 128 0 0 0
SMALL
GASTEIGER

@<TRIPOS>ATOM
     1 C         5.179856   1.707108   0.498952 C.3        1 UNL1     0.0009
     2 C         6.628061   2.492246   -0.351517 C.2        1 UNL1     -0.0787
     3 C         7.911074   2.376005   -1.012133 C.2        1 UNL1     -0.0649
     4 C         8.804382   3.596754   -1.772482 C.2        1 UNL1     -0.0542
     5 C         9.83071   3.872394   -2.709365 C.2        1 UNL1     0.0115
     6 C         10.955044   3.229316   -3.567065 C.3        1 UNL1     -0.0348
     7 C         9.944129   5.350633   -3.32494 C.2        1 UNL1     0.2441
     8 O         10.775538   6.165752   -2.94962 O.2        1 UNL1     -0.2702
     9 N         9.200191   5.55819   -4.499516 N.am        1 UNL1     -0.2772
     10 C         7.92066   5.960664   -4.192697 C.2        1 UNL1     0.1049
     11 C         7.063444   5.000303   -3.897553 C.2        1 UNL1     0.0801
     12 C         6.634873   7.590187   -2.796725 C.ar        1 UNL1     0.0753
     13 C         5.862158   6.473396   -2.344733 C.ar        1 UNL1     0.0305
     14 C         5.967193   5.162416   -2.981404 C.2        1 UNL1     0.0924
     15 N         7.172253   3.669092   -4.047772 N.pl3        1 UNL1     -0.3170
     16 C         5.894933   3.085657   -3.734228 C.3        1 UNL1     0.1275
     17 N         5.265536   4.053931   -2.762617 N.2        1 UNL1     -0.2557
     18 C         5.047097   3.14584   -5.001214 C.3        1 UNL1     0.0016
     19 C         5.798403   2.44646   -6.122819 C.3        1 UNL1     0.0026
     20 N         6.052331   1.068021   -5.727278 N.3        1 UNL1     -0.3018
     21 C         6.809671   0.907331   -4.484304 C.3        1 UNL1     0.0026
     22 C         6.034598   1.613346   -3.370437 C.3        1 UNL1     0.0016
     23 C         6.491755   0.236671   -6.830186 C.3        1 UNL1     0.0012
     24 C         5.335602   -0.011124   -7.81185 C.3        1 UNL1     -0.0339
     25 C         5.370486   0.983007   -8.984259 C.3        1 UNL1     -0.0615
     26 C         5.36433   -1.449803   -8.297811 C.3        1 UNL1     -0.0615
     27 C         6.442067   8.863433   -2.265888 C.ar        1 UNL1     0.1347
     28 C         5.4827   9.149425   -1.310968 C.ar        1 UNL1     0.0342
     29 C         4.767362   8.025564   -0.845788 C.ar        1 UNL1     0.1435
     30 C         4.974678   6.738044   -1.342308 C.ar        1 UNL1     0.0774
     31 O         3.724748   8.15579   0.003331 O.3        1 UNL1     -0.4436
     32 C         2.990293   6.929934   -0.133508 C.3        1 UNL1     0.3143
     33 C         3.994621   5.922589   -0.655805 C.2        1 UNL1     0.2504
     34 C         5.049133   10.523052   -0.880539 C.3        1 UNL1     -0.0327
     35 O         2.620471   6.505566   1.184215 O.2        1 UNL1     -0.4528
     36 C         -0.641872   4.605935   0.788479 C.3        1 UNL1     0.0854
     37 C         -0.957706   3.343003   -0.101899 C.3        1 UNL1     0.0236
     38 C         -1.574525   2.093566   0.691943 C.3        1 UNL1     0.1131
     39 C         -0.858985   1.563175   1.999214 C.3        1 UNL1     0.0200
     40 C         0.800389   1.400007   2.047087 C.3        1 UNL1     0.0661
     41 C         1.755383   0.613426   0.886531 C.3        1 UNL1     0.0091
     42 C         3.468698   0.95395   0.326177 C.3        1 UNL1     0.0661
     43 C         7.586435   7.365096   -3.913024 C.2        1 UNL1     0.2131
     44 O         7.998438   8.254199   -4.635856 O.2        1 UNL1     -0.2851
     45 O         7.267021   9.886775   -2.728123 O.3        1 UNL1     -0.5056
     46 O         3.997169   4.719813   -0.51732 O.2        1 UNL1     -0.2836
     47 C         5.566654   1.282596   1.941228 C.3        1 UNL1     -0.0566
     48 O         3.901719   -0.461354   0.418498 O.3        1 UNL1     -0.3909
     49 C         0.922964   0.381908   -0.354828 C.3        1 UNL1     -0.0577
     50 O         1.41236   2.61382   2.43422 O.3        1 UNL1     -0.3910
     51 O         -0.772743   4.426518   2.180641 O.3        1 UNL1     -0.3753
     52 C         0.088877   3.163914   -1.24974 C.3        1 UNL1     -0.0564
     53 O         -2.185242   1.055398   -0.203355 O.3        1 UNL1     -0.4608
     54 C         -2.422821   -0.249948   0.139513 C.2        1 UNL1     0.3042
     55 O         -1.859949   -1.251896   -0.299936 O.2        1 UNL1     -0.2512
     56 C         -3.457638   -0.410034   1.216657 C.3        1 UNL1     0.0332
     57 C         -1.57704   2.24796   3.253663 C.3        1 UNL1     -0.0567
     58 C         1.921506   7.179651   -1.222942 C.3        1 UNL1     0.0210
     59 C         -1.106686   5.607488   2.908417 C.3        1 UNL1     0.0372
     60 C         0.694617   5.219172   0.558483 C.2        1 UNL1     -0.0208
     61 C         1.609233   5.650099   1.428266 C.2        1 UNL1     0.0882
     62 H         4.714297   2.696891   0.578299 H        1 UNL1     0.0365
     63 H         6.372852   3.549506   -0.25385 H        1 UNL1     0.0576
     64 H         8.35901   1.402884   -1.225429 H        1 UNL1     0.0615
     65 H         8.326035   4.519549   -1.433193 H        1 UNL1     0.0622
     66 H         -1.377357   5.358443   0.470925 H        1 UNL1     0.0645
     67 H         -1.817777   3.657757   -0.718151 H        1 UNL1     0.0362
     68 H         -2.518014   2.542868   1.037601 H        1 UNL1     0.0741
     69 H         -1.202071   0.556981   2.1999 H        1 UNL1     0.0359
     70 H         0.902028   0.744169   2.932867 H        1 UNL1     0.0600
     71 H         1.786482   -0.405393   1.320118 H        1 UNL1     0.0348
     72 H         3.364763   1.449535   1.302348 H        1 UNL1     0.0602
     73 H         0.818161   5.408493   -0.47889 H        1 UNL1     0.0628
     74 H         1.585774   5.446496   2.499356 H        1 UNL1     0.1022
     75 H         10.987064   2.124625   -3.406856 H        1 UNL1     0.0279
     76 H         10.845981   3.306412   -4.646523 H        1 UNL1     0.0279
     77 H         11.962234   3.525257   -3.238908 H        1 UNL1     0.0279
     78 H         9.130584   4.685615   -5.018981 H        1 UNL1     0.1553
     79 H         7.834958   3.230008   -4.660112 H        1 UNL1     0.1484
     80 H         4.079915   2.66655   -4.80729 H        1 UNL1     0.0317
     81 H         4.832622   4.183217   -5.279603 H        1 UNL1     0.0317
     82 H         6.735587   2.9661   -6.370956 H        1 UNL1     0.0428
     83 H         5.176917   2.502622   -7.017052 H        1 UNL1     0.0428
     84 H         6.917668   -0.134854   -4.168079 H        1 UNL1     0.0428
     85 H         7.844025   1.263566   -4.586892 H        1 UNL1     0.0428
     86 H         6.545197   1.363258   -2.458992 H        1 UNL1     0.0317
     87 H         5.049632   1.147106   -3.245704 H        1 UNL1     0.0317
     88 H         7.292699   0.76819   -7.360536 H        1 UNL1     0.0429
     89 H         6.916468   -0.709789   -6.471569 H        1 UNL1     0.0429
     90 H         4.382961   0.10709   -7.282025 H        1 UNL1     0.0308
     91 H         6.319684   0.926538   -9.525496 H        1 UNL1     0.0233
     92 H         4.549554   0.790103   -9.678858 H        1 UNL1     0.0233
     93 H         5.253874   2.022354   -8.654117 H        1 UNL1     0.0233
     94 H         4.668073   -1.580227   -9.133306 H        1 UNL1     0.0233
     95 H         6.367184   -1.704658   -8.651781 H        1 UNL1     0.0233
     96 H         5.083467   -2.145458   -7.502105 H        1 UNL1     0.0233
     97 H         4.252792   10.486573   -0.143151 H        1 UNL1     0.0280
     98 H         5.866395   11.087298   -0.412602 H        1 UNL1     0.0280
     99 H         4.684531   11.085989   -1.755333 H        1 UNL1     0.0280
     100 H         6.809217   10.640025   -3.057748 H        1 UNL1     0.2922
     101 H         4.697496   0.86153   2.446129 H        1 UNL1     0.0236
     102 H         6.024135   2.086734   2.516603 H        1 UNL1     0.0236
     103 H         6.314191   0.471832   1.94787 H        1 UNL1     0.0236
     104 H         4.316897   -0.58625   1.294282 H        1 UNL1     0.2098
     105 H         0.712488   1.280991   -0.928553 H        1 UNL1     0.0234
     106 H         1.292382   -0.406652   -1.010291 H        1 UNL1     0.0234
     107 H         0.0   -0.0   0.0 H        1 UNL1     0.0234
     108 H         1.220898   3.270476   1.737145 H        1 UNL1     0.2098
     109 H         1.11113   3.041843   -0.865279 H        1 UNL1     0.0234
     110 H         -0.150173   2.335023   -1.924677 H        1 UNL1     0.0234
     111 H         0.121818   4.04224   -1.908074 H        1 UNL1     0.0234
     112 H         -3.59523   -1.471121   1.445801 H        1 UNL1     0.0342
     113 H         -3.205834   0.15391   2.113544 H        1 UNL1     0.0342
     114 H         -4.41212   -0.021178   0.835973 H        1 UNL1     0.0342
     115 H         -2.644208   1.991354   3.303601 H        1 UNL1     0.0234
     116 H         -1.131598   1.988728   4.216175 H        1 UNL1     0.0234
     117 H         -1.625419   3.348433   3.186131 H        1 UNL1     0.0234
     118 H         1.024347   7.678873   -0.816879 H        1 UNL1     0.0309
     119 H         2.300074   7.758176   -2.071586 H        1 UNL1     0.0309
     120 H         1.524341   6.249224   -1.643267 H        1 UNL1     0.0309
     121 H         -0.295713   6.32162   2.76808 H        1 UNL1     0.0524
     122 H         -2.032196   6.079261   2.538419 H        1 UNL1     0.0524
     123 H         -1.225476   5.37779   3.96351 H        1 UNL1     0.0524
@<TRIPOS>BOND
     1     1     2    1
     2     1    42    1
     3     2     3    2
     4     3     4    1
     5     4     5    2
     6     5     7    1
     7     6    75    1
     8     6    76    1
     9     6    77    1
    10     7     9   am
    11     9    10    1
    12    10    11    2
    13    10    43    1
    14    11    14    1
    15    11    15    1
    16    12    13   ar
    17    12    27   ar
    18    12    43    1
    19    13    14    1
    20    13    30   ar
    21    14    17    2
    22    15    16    1
    23    16    17    1
    24    16    18    1
    25    16    22    1
    26    18    19    1
    27    19    20    1
    28    20    21    1
    29    21    22    1
    30    23    24    1
    31    23    88    1
    32    23    89    1
    33    24    25    1
    34    24    26    1
    35    24    90    1
    36    25    91    1
    37    25    92    1
    38    25    93    1
    39    26    94    1
    40    26    95    1
    41    26    96    1
    42    27    28   ar
    43    28    29   ar
    44    29    30   ar
    45    29    31    1
    46    30    33    1
    47    31    32    1
    48    32    33    1
    49    32    35    1
    50    34    97    1
    51    34    98    1
    52    34    99    1
    53    35    61    1
    54    36    37    1
    55    36    60    1
    56    37    38    1
    57    38    39    1
    58    39    40    1
    59    40    41    1
    60    41    42    1
    61    45   100    1
    62    47   101    1
    63    47   102    1
    64    47   103    1
    65    48   104    1
    66    49   105    1
    67    49   106    1
    68    49   107    1
    69    50   108    1
    70    51    59    1
    71    52   109    1
    72    52   110    1
    73    52   111    1
    74    53    54    1
    75    54    55    2
    76    54    56    1
    77    56   112    1
    78    56   113    1
    79    56   114    1
    80    57   115    1
    81    57   116    1
    82    57   117    1
    83    58   118    1
    84    58   119    1
    85    58   120    1
    86    59   121    1
    87    59   122    1
    88    59   123    1
    89    60    61    2
    90     1    47    1
    91     1    62    1
    92     2    63    1
    93     3    64    1
    94     4    65    1
    95     5     6    1
    96     7     8    2
    97     9    78    1
    98    15    79    1
    99    18    80    1
   100    18    81    1
   101    19    82    1
   102    19    83    1
   103    20    23    1
   104    21    84    1
   105    21    85    1
   106    22    86    1
   107    22    87    1
   108    27    45    1
   109    28    34    1
   110    32    58    1
   111    33    46    2
   112    36    51    1
   113    36    66    1
   114    37    52    1
   115    37    67    1
   116    38    53    1
   117    38    68    1
   118    42    48    1
   119    42    72    1
   120    43    44    2
   121    60    73    1
   122    61    74    1
   123    39    69    1
   124    39    57    1
   125    40    70    1
   126    40    50    1
   127    41    71    1
   128    41    49    1
