@<TRIPOS>MOLECULE
*****
 123 128 0 0 0
SMALL
GASTEIGER

@<TRIPOS>ATOM
     1 C         5.166584   1.75972   0.45715 C.3        1 UNL1     0.0009
     2 C         6.596188   2.568135   -0.402928 C.2        1 UNL1     -0.0787
     3 C         7.87399   2.472072   -1.076753 C.2        1 UNL1     -0.0649
     4 C         8.744106   3.708439   -1.838757 C.2        1 UNL1     -0.0542
     5 C         9.757531   4.002491   -2.784051 C.2        1 UNL1     0.0115
     6 C         10.881446   3.378724   -3.656434 C.3        1 UNL1     -0.0348
     7 C         9.846005   5.485518   -3.392157 C.2        1 UNL1     0.2441
     8 O         10.67062   6.309084   -3.020304 O.2        1 UNL1     -0.2702
     9 N         9.087915   5.690165   -4.558164 N.am        1 UNL1     -0.2772
     10 C         7.80645   6.074477   -4.236494 C.2        1 UNL1     0.1049
     11 C         6.964506   5.101564   -3.938512 C.2        1 UNL1     0.0801
     12 C         6.51384   7.679483   -2.818591 C.ar        1 UNL1     0.0753
     13 C         5.759931   6.55035   -2.365504 C.ar        1 UNL1     0.0305
     14 C         5.87538   5.244442   -3.010738 C.2        1 UNL1     0.0924
     15 N         7.088792   3.772726   -4.09748 N.pl3        1 UNL1     -0.3170
     16 C         5.822175   3.171216   -3.774803 C.3        1 UNL1     0.1275
     17 N         5.19011   4.125844   -2.791489 N.2        1 UNL1     -0.2557
     18 C         4.961166   3.227695   -5.033046 C.3        1 UNL1     0.0016
     19 C         5.710213   2.544346   -6.165986 C.3        1 UNL1     0.0026
     20 N         5.985592   1.167058   -5.780923 N.3        1 UNL1     -0.3018
     21 C         6.757161   1.009059   -4.546384 C.3        1 UNL1     0.0026
     22 C         5.984189   1.698783   -3.420911 C.3        1 UNL1     0.0016
     23 C         6.424666   0.347651   -6.892872 C.3        1 UNL1     0.0012
     24 C         5.263486   0.095169   -7.867383 C.3        1 UNL1     -0.0339
     25 C         5.348924   1.017111   -9.094893 C.3        1 UNL1     -0.0615
     26 C         5.229938   -1.369111   -8.269302 C.3        1 UNL1     -0.0615
     27 C         6.310067   8.947135   -2.278541 C.ar        1 UNL1     0.1347
     28 C         5.35661   9.215415   -1.312625 C.ar        1 UNL1     0.0342
     29 C         4.660292   8.079874   -0.846954 C.ar        1 UNL1     0.1435
     30 C         4.879094   6.797941   -1.352914 C.ar        1 UNL1     0.0774
     31 O         3.62454   8.191935   0.013085 O.3        1 UNL1     -0.4436
     32 C         2.90446   6.957565   -0.123627 C.3        1 UNL1     0.3143
     33 C         3.916343   5.966134   -0.661557 C.2        1 UNL1     0.2504
     34 C         4.909836   10.580922   -0.870037 C.3        1 UNL1     -0.0327
     35 O         2.553114   6.521055   1.195186 O.2        1 UNL1     -0.4528
     36 C         -0.688491   4.582064   0.820487 C.3        1 UNL1     0.0854
     37 C         -0.996975   3.320243   -0.074033 C.3        1 UNL1     0.0236
     38 C         -1.58994   2.058542   0.718587 C.3        1 UNL1     0.1131
     39 C         -0.854817   1.529979   2.015693 C.3        1 UNL1     0.0200
     40 C         0.806895   1.387809   2.04635 C.3        1 UNL1     0.0661
     41 C         1.76033   0.620096   0.871962 C.3        1 UNL1     0.0091
     42 C         3.463546   0.985696   0.296813 C.3        1 UNL1     0.0661
     43 C         7.457122   7.472911   -3.945448 C.2        1 UNL1     0.2131
     44 O         7.850594   8.371289   -4.667136 O.2        1 UNL1     -0.2851
     45 O         7.117299   9.983555   -2.742923 O.3        1 UNL1     -0.5056
     46 O         3.935596   4.762726   -0.530055 O.2        1 UNL1     -0.2836
     47 C         5.572991   1.332052   1.893087 C.3        1 UNL1     -0.0566
     48 O         3.915469   -0.424445   0.376704 O.3        1 UNL1     -0.3909
     49 C         0.91871   0.384955   -0.362493 C.3        1 UNL1     -0.0577
     50 O         1.407132   2.607153   2.434471 O.3        1 UNL1     -0.3910
     51 O         -0.803305   4.39312   2.212805 O.3        1 UNL1     -0.3753
     52 C         0.040418   3.161062   -1.233097 C.3        1 UNL1     -0.0564
     53 O         -2.196183   1.017713   -0.176663 O.3        1 UNL1     -0.4608
     54 C         -2.394633   -0.297352   0.153717 C.2        1 UNL1     0.3042
     55 O         -1.812626   -1.278993   -0.30616 O.2        1 UNL1     -0.2512
     56 C         -3.408637   -0.497126   1.243947 C.3        1 UNL1     0.0332
     57 C         -1.569119   2.19841   3.281057 C.3        1 UNL1     -0.0567
     58 C         1.821867   7.199726   -1.201068 C.3        1 UNL1     0.0210
     59 C         -1.114143   5.572016   2.954055 C.3        1 UNL1     0.0372
     60 C         0.637733   5.213658   0.580944 C.2        1 UNL1     -0.0208
     61 C         1.555326   5.651341   1.444194 C.2        1 UNL1     0.0882
     62 H         4.689248   2.742995   0.546774 H        1 UNL1     0.0365
     63 H         6.328496   3.621471   -0.296656 H        1 UNL1     0.0576
     64 H         8.33217   1.505988   -1.300049 H        1 UNL1     0.0615
     65 H         8.257406   4.6231   -1.489469 H        1 UNL1     0.0622
     66 H         -1.436613   5.326873   0.514512 H        1 UNL1     0.0645
     67 H         -1.867035   3.627433   -0.679994 H        1 UNL1     0.0362
     68 H         -2.535621   2.493762   1.076069 H        1 UNL1     0.0741
     69 H         -1.183045   0.518355   2.213916 H        1 UNL1     0.0359
     70 H         0.925633   0.728331   2.927287 H        1 UNL1     0.0600
     71 H         1.8087   -0.400676   1.299329 H        1 UNL1     0.0348
     72 H         3.362947   1.474384   1.276802 H        1 UNL1     0.0602
     73 H         0.748599   5.410406   -0.456479 H        1 UNL1     0.0628
     74 H         1.545047   5.441404   2.514268 H        1 UNL1     0.1022
     75 H         10.910388   2.270202   -3.524617 H        1 UNL1     0.0279
     76 H         10.774147   3.483811   -4.733705 H        1 UNL1     0.0279
     77 H         11.888919   3.663504   -3.319389 H        1 UNL1     0.0279
     78 H         9.024312   4.819719   -5.081954 H        1 UNL1     0.1553
     79 H         7.750961   3.345633   -4.718815 H        1 UNL1     0.1484
     80 H         4.002137   2.734969   -4.832421 H        1 UNL1     0.0317
     81 H         4.730741   4.263797   -5.303321 H        1 UNL1     0.0317
     82 H         6.638199   3.07734   -6.420294 H        1 UNL1     0.0428
     83 H         5.079259   2.597596   -7.053743 H        1 UNL1     0.0428
     84 H         6.881556   -0.033428   -4.237259 H        1 UNL1     0.0428
     85 H         7.785825   1.379086   -4.657049 H        1 UNL1     0.0428
     86 H         6.506913   1.450107   -2.515976 H        1 UNL1     0.0317
     87 H         5.006528   1.219269   -3.289222 H        1 UNL1     0.0317
     88 H         7.216247   0.890669   -7.425625 H        1 UNL1     0.0429
     89 H         6.861401   -0.596999   -6.544056 H        1 UNL1     0.0429
     90 H         4.314475   0.286269   -7.352532 H        1 UNL1     0.0308
     91 H         6.30117   0.893797   -9.619415 H        1 UNL1     0.0233
     92 H         4.528924   0.814668   -9.787876 H        1 UNL1     0.0233
     93 H         5.268232   2.077593   -8.827122 H        1 UNL1     0.0233
     94 H         4.569771   -1.50892   -9.132128 H        1 UNL1     0.0233
     95 H         6.232105   -1.701403   -8.554266 H        1 UNL1     0.0233
     96 H         4.868299   -1.999116   -7.451818 H        1 UNL1     0.0233
     97 H         4.082192   10.53142   -0.168762 H        1 UNL1     0.0280
     98 H         5.70813   11.130613   -0.354457 H        1 UNL1     0.0280
     99 H         4.585505   11.16524   -1.746665 H        1 UNL1     0.0280
     100 H         6.647661   10.745781   -3.03288 H        1 UNL1     0.2922
     101 H         4.711165   0.908454   2.408332 H        1 UNL1     0.0236
     102 H         6.036918   2.135357   2.46445 H        1 UNL1     0.0236
     103 H         6.321674   0.522337   1.887756 H        1 UNL1     0.0236
     104 H         4.252994   -0.575205   1.281314 H        1 UNL1     0.2098
     105 H         0.70043   1.28297   -0.934973 H        1 UNL1     0.0234
     106 H         1.285585   -0.402668   -1.020506 H        1 UNL1     0.0234
     107 H         0.0   -0.0   0.0 H        1 UNL1     0.0234
     108 H         1.256659   3.247316   1.712448 H        1 UNL1     0.2098
     109 H         1.069312   3.062317   -0.859818 H        1 UNL1     0.0234
     110 H         -0.187974   2.325412   -1.903373 H        1 UNL1     0.0234
     111 H         0.046828   4.038194   -1.893813 H        1 UNL1     0.0234
     112 H         -3.503635   -1.56287   1.473102 H        1 UNL1     0.0342
     113 H         -3.166323   0.074754   2.138419 H        1 UNL1     0.0342
     114 H         -4.381816   -0.143643   0.876338 H        1 UNL1     0.0342
     115 H         -2.640569   1.95817   3.319351 H        1 UNL1     0.0234
     116 H         -1.133621   1.910705   4.240023 H        1 UNL1     0.0234
     117 H         -1.599315   3.300751   3.237752 H        1 UNL1     0.0234
     118 H         0.920619   7.680881   -0.782442 H        1 UNL1     0.0309
     119 H         2.183345   7.791732   -2.047865 H        1 UNL1     0.0309
     120 H         1.435763   6.2668   -1.626132 H        1 UNL1     0.0309
     121 H         -0.278194   6.261932   2.841977 H        1 UNL1     0.0524
     122 H         -2.016515   6.079353   2.574092 H        1 UNL1     0.0524
     123 H         -1.261468   5.328835   4.002507 H        1 UNL1     0.0524
@<TRIPOS>BOND
     1     1     2    1
     2     1    42    1
     3     2     3    2
     4     3     4    1
     5     4     5    2
     6     5     7    1
     7     6    75    1
     8     6    76    1
     9     6    77    1
    10     7     9   am
    11     9    10    1
    12    10    11    2
    13    10    43    1
    14    11    14    1
    15    11    15    1
    16    12    13   ar
    17    12    27   ar
    18    12    43    1
    19    13    14    1
    20    13    30   ar
    21    14    17    2
    22    15    16    1
    23    16    17    1
    24    16    18    1
    25    16    22    1
    26    18    19    1
    27    19    20    1
    28    20    21    1
    29    21    22    1
    30    23    24    1
    31    23    88    1
    32    23    89    1
    33    24    25    1
    34    24    26    1
    35    24    90    1
    36    25    91    1
    37    25    92    1
    38    25    93    1
    39    26    94    1
    40    26    95    1
    41    26    96    1
    42    27    28   ar
    43    28    29   ar
    44    29    30   ar
    45    29    31    1
    46    30    33    1
    47    31    32    1
    48    32    33    1
    49    32    35    1
    50    34    97    1
    51    34    98    1
    52    34    99    1
    53    35    61    1
    54    36    37    1
    55    36    60    1
    56    37    38    1
    57    38    39    1
    58    39    40    1
    59    40    41    1
    60    41    42    1
    61    45   100    1
    62    47   101    1
    63    47   102    1
    64    47   103    1
    65    48   104    1
    66    49   105    1
    67    49   106    1
    68    49   107    1
    69    50   108    1
    70    51    59    1
    71    52   109    1
    72    52   110    1
    73    52   111    1
    74    53    54    1
    75    54    55    2
    76    54    56    1
    77    56   112    1
    78    56   113    1
    79    56   114    1
    80    57   115    1
    81    57   116    1
    82    57   117    1
    83    58   118    1
    84    58   119    1
    85    58   120    1
    86    59   121    1
    87    59   122    1
    88    59   123    1
    89    60    61    2
    90     1    47    1
    91     1    62    1
    92     2    63    1
    93     3    64    1
    94     4    65    1
    95     5     6    1
    96     7     8    2
    97     9    78    1
    98    15    79    1
    99    18    80    1
   100    18    81    1
   101    19    82    1
   102    19    83    1
   103    20    23    1
   104    21    84    1
   105    21    85    1
   106    22    86    1
   107    22    87    1
   108    27    45    1
   109    28    34    1
   110    32    58    1
   111    33    46    2
   112    36    51    1
   113    36    66    1
   114    37    52    1
   115    37    67    1
   116    38    53    1
   117    38    68    1
   118    42    48    1
   119    42    72    1
   120    43    44    2
   121    60    73    1
   122    61    74    1
   123    39    69    1
   124    39    57    1
   125    40    70    1
   126    40    50    1
   127    41    71    1
   128    41    49    1
