@<TRIPOS>MOLECULE
*****
 123 128 0 0 0
SMALL
GASTEIGER

@<TRIPOS>ATOM
     1 C         -4.216634   1.164452   1.248773 C.3        1 UNL1     0.0009
     2 C         -5.083186   2.755112   1.643644 C.2        1 UNL1     -0.0787
     3 C         -5.393709   3.818498   2.575756 C.2        1 UNL1     -0.0649
     4 C         -6.262369   5.241191   2.279561 C.2        1 UNL1     -0.0542
     5 C         -6.523532   6.557766   2.732885 C.2        1 UNL1     0.0115
     6 C         -6.309646   7.546396   3.911946 C.3        1 UNL1     -0.0348
     7 C         -7.183429   7.612205   1.718152 C.2        1 UNL1     0.2441
     8 O         -8.367633   7.917177   1.752472 O.2        1 UNL1     -0.2702
     9 N         -6.262296   8.35544   0.959687 N.am        1 UNL1     -0.2772
     10 C         -5.944179   7.686238   -0.199749 C.2        1 UNL1     0.1049
     11 C         -5.011208   6.757007   -0.098177 C.2        1 UNL1     0.0801
     12 C         -6.967496   6.500205   -2.150002 C.ar        1 UNL1     0.0753
     13 C         -6.068716   5.42301   -1.866359 C.ar        1 UNL1     0.0305
     14 C         -4.972142   5.572501   -0.9123 C.2        1 UNL1     0.0924
     15 N         -4.162926   6.49118   0.909931 N.pl3        1 UNL1     -0.3170
     16 C         -3.234453   5.492339   0.451116 C.3        1 UNL1     0.1275
     17 N         -3.995176   4.724878   -0.602463 N.2        1 UNL1     -0.2557
     18 C         -2.112729   6.220843   -0.282859 C.3        1 UNL1     0.0016
     19 C         -1.509796   7.255159   0.654292 C.3        1 UNL1     0.0026
     20 N         -1.005418   6.575091   1.839255 N.3        1 UNL1     -0.3018
     21 C         -1.99985   5.795306   2.579127 C.3        1 UNL1     0.0026
     22 C         -2.589203   4.759616   1.620011 C.3        1 UNL1     0.0016
     23 C         -0.151547   7.417775   2.652539 C.3        1 UNL1     0.0012
     24 C         -0.769815   7.628019   4.043689 C.3        1 UNL1     -0.0339
     25 C         -1.448475   9.003148   4.155489 C.3        1 UNL1     -0.0615
     26 C         -1.73665   6.500141   4.359759 C.3        1 UNL1     -0.0615
     27 C         -7.933985   6.390282   -3.146964 C.ar        1 UNL1     0.1347
     28 C         -8.0712   5.272001   -3.949878 C.ar        1 UNL1     0.0342
     29 C         -7.207869   4.205706   -3.619968 C.ar        1 UNL1     0.1435
     30 C         -6.259034   4.288144   -2.600098 C.ar        1 UNL1     0.0774
     31 O         -7.143956   3.089988   -4.378977 O.3        1 UNL1     -0.4436
     32 C         -5.885809   2.489685   -4.036084 C.3        1 UNL1     0.3143
     33 C         -5.554335   3.024472   -2.657555 C.2        1 UNL1     0.2504
     34 C         -8.909093   5.17765   -5.194519 C.3        1 UNL1     -0.0327
     35 O         -6.110232   1.081558   -3.894441 O.2        1 UNL1     -0.4528
     36 C         -2.846867   -0.59537   -4.867297 C.3        1 UNL1     0.0854
     37 C         -1.404398   -0.394711   -4.26187 C.3        1 UNL1     0.0236
     38 C         -0.693927   -1.737754   -3.748827 C.3        1 UNL1     0.1131
     39 C         -1.467942   -2.711339   -2.771432 C.3        1 UNL1     0.0200
     40 C         -2.341491   -2.101187   -1.488051 C.3        1 UNL1     0.0661
     41 C         -1.780026   -0.976306   -0.349187 C.3        1 UNL1     0.0091
     42 C         -2.675223   0.335684   0.568803 C.3        1 UNL1     0.0661
     43 C         -6.777972   7.771344   -1.408012 C.2        1 UNL1     0.2131
     44 O         -7.184124   8.848821   -1.804019 O.2        1 UNL1     -0.2851
     45 O         -8.798908   7.467491   -3.328527 O.3        1 UNL1     -0.5056
     46 O         -4.878935   2.51239   -1.792998 O.2        1 UNL1     -0.2836
     47 C         -4.940341   -0.027629   1.930809 C.3        1 UNL1     -0.0566
     48 O         -2.089073   -0.024796   1.882423 O.3        1 UNL1     -0.3909
     49 C         -0.49874   -0.359001   -0.863711 C.3        1 UNL1     -0.0577
     50 O         -3.655144   -1.767927   -1.889268 O.3        1 UNL1     -0.3910
     51 O         -3.400518   -1.884133   -4.725905 O.3        1 UNL1     -0.3753
     52 C         -1.281195   0.958519   -3.488216 C.3        1 UNL1     -0.0564
     53 O         0.779711   -1.584033   -3.509903 O.3        1 UNL1     -0.4608
     54 C         1.747955   -2.461469   -3.92287 C.2        1 UNL1     0.3042
     55 O         2.420497   -2.401679   -4.951438 O.2        1 UNL1     -0.2512
     56 C         2.012827   -3.56937   -2.943528 C.3        1 UNL1     0.0332
     57 C         -2.151466   -3.848387   -3.664792 C.3        1 UNL1     -0.0567
     58 C         -4.850314   3.03713   -5.045829 C.3        1 UNL1     0.0210
     59 C         -4.753589   -1.908914   -4.273744 C.3        1 UNL1     0.0372
     60 C         -3.872246   0.367944   -4.381722 C.2        1 UNL1     -0.0208
     61 C         -5.127366   0.164612   -3.979137 C.2        1 UNL1     0.0882
     62 H         -4.609949   1.226116   0.226906 H        1 UNL1     0.0365
     63 H         -5.648766   2.912842   0.722932 H        1 UNL1     0.0576
     64 H         -4.929451   3.867813   3.563248 H        1 UNL1     0.0615
     65 H         -6.744834   5.056127   1.315994 H        1 UNL1     0.0622
     66 H         -2.726486   -0.391737   -5.940651 H        1 UNL1     0.0645
     67 H         -0.78066   -0.136308   -5.135219 H        1 UNL1     0.0362
     68 H         -0.618056   -2.28165   -4.702736 H        1 UNL1     0.0741
     69 H         -0.750437   -3.357796   -2.283898 H        1 UNL1     0.0359
     70 H         -2.461603   -3.021207   -0.884565 H        1 UNL1     0.0600
     71 H         -1.392728   -1.664525   0.427545 H        1 UNL1     0.0348
     72 H         -3.444214   -0.368371   0.219126 H        1 UNL1     0.0602
     73 H         -3.509301   1.357647   -4.508237 H        1 UNL1     0.0628
     74 H         -5.556628   -0.815753   -3.769719 H        1 UNL1     0.1022
     75 H         -6.962083   7.273028   4.776023 H        1 UNL1     0.0279
     76 H         -5.319084   7.558786   4.361059 H        1 UNL1     0.0279
     77 H         -6.664888   8.562251   3.684919 H        1 UNL1     0.0279
     78 H         -5.401655   8.476435   1.48953 H        1 UNL1     0.1553
     79 H         -3.942585   7.144178   1.639298 H        1 UNL1     0.1484
     80 H         -1.363151   5.48884   -0.607004 H        1 UNL1     0.0317
     81 H         -2.489187   6.706459   -1.18956 H        1 UNL1     0.0317
     82 H         -2.238543   8.033449   0.924673 H        1 UNL1     0.0428
     83 H         -0.713411   7.764045   0.110364 H        1 UNL1     0.0428
     84 H         -1.579565   5.231003   3.417419 H        1 UNL1     0.0428
     85 H         -2.75968   6.438238   3.044546 H        1 UNL1     0.0428
     86 H         -3.210258   4.125242   2.224865 H        1 UNL1     0.0317
     87 H         -1.800783   4.082717   1.268871 H        1 UNL1     0.0317
     88 H         0.814613   6.910397   2.772528 H        1 UNL1     0.0429
     89 H         0.048324   8.377527   2.158879 H        1 UNL1     0.0429
     90 H         0.020562   7.566086   4.801107 H        1 UNL1     0.0308
     91 H         -1.259792   9.461677   5.130811 H        1 UNL1     0.0233
     92 H         -1.09409   9.673885   3.369276 H        1 UNL1     0.0233
     93 H         -2.537187   8.94236   4.037816 H        1 UNL1     0.0233
     94 H         -2.334686   6.751512   5.24237 H        1 UNL1     0.0233
     95 H         -2.42134   6.348758   3.520566 H        1 UNL1     0.0233
     96 H         -1.206937   5.563832   4.556475 H        1 UNL1     0.0233
     97 H         -8.302352   5.17764   -6.095127 H        1 UNL1     0.0280
     98 H         -9.497109   4.251177   -5.228289 H        1 UNL1     0.0280
     99 H         -9.597755   6.037071   -5.241818 H        1 UNL1     0.0280
     100 H         -8.394761   8.237966   -3.687214 H        1 UNL1     0.2922
     101 H         -5.988323   -0.041087   1.632131 H        1 UNL1     0.0236
     102 H         -4.823626   -0.036972   3.013987 H        1 UNL1     0.0236
     103 H         -4.541637   -1.000086   1.59681 H        1 UNL1     0.0236
     104 H         -1.997054   -0.997358   1.907447 H        1 UNL1     0.2098
     105 H         0.166205   -1.057285   -1.365765 H        1 UNL1     0.0234
     106 H         -0.63611   0.535266   -1.471447 H        1 UNL1     0.0234
     107 H         0.0   0.0   0.0 H        1 UNL1     0.0234
     108 H         -3.759197   -2.061926   -2.814744 H        1 UNL1     0.2098
     109 H         -2.23835   1.495852   -3.434935 H        1 UNL1     0.0234
     110 H         -0.869855   0.841855   -2.479786 H        1 UNL1     0.0234
     111 H         -0.581839   1.645458   -3.983153 H        1 UNL1     0.0234
     112 H         3.091277   -3.714643   -2.828688 H        1 UNL1     0.0342
     113 H         1.538445   -3.38679   -1.980476 H        1 UNL1     0.0342
     114 H         1.589681   -4.497216   -3.352445 H        1 UNL1     0.0342
     115 H         -1.543625   -4.095956   -4.545943 H        1 UNL1     0.0234
     116 H         -2.344864   -4.778866   -3.12734 H        1 UNL1     0.0234
     117 H         -3.094399   -3.527155   -4.139795 H        1 UNL1     0.0234
     118 H         -4.611049   2.301938   -5.834024 H        1 UNL1     0.0309
     119 H         -5.16202   3.975969   -5.51447 H        1 UNL1     0.0309
     120 H         -3.877549   3.237336   -4.583496 H        1 UNL1     0.0309
     121 H         -5.311577   -2.56708   -4.939194 H        1 UNL1     0.0524
     122 H         -4.845977   -2.313829   -3.252204 H        1 UNL1     0.0524
     123 H         -5.175644   -0.908177   -4.295852 H        1 UNL1     0.0524
@<TRIPOS>BOND
     1     1     2    1
     2     1    42    1
     3     2     3    2
     4     3     4    1
     5     4     5    2
     6     5     7    1
     7     6    75    1
     8     6    76    1
     9     6    77    1
    10     7     9   am
    11     9    10    1
    12    10    11    2
    13    10    43    1
    14    11    14    1
    15    11    15    1
    16    12    13   ar
    17    12    27   ar
    18    12    43    1
    19    13    14    1
    20    13    30   ar
    21    14    17    2
    22    15    16    1
    23    16    17    1
    24    16    18    1
    25    16    22    1
    26    18    19    1
    27    19    20    1
    28    20    21    1
    29    21    22    1
    30    23    24    1
    31    23    88    1
    32    23    89    1
    33    24    25    1
    34    24    26    1
    35    24    90    1
    36    25    91    1
    37    25    92    1
    38    25    93    1
    39    26    94    1
    40    26    95    1
    41    26    96    1
    42    27    28   ar
    43    28    29   ar
    44    29    30   ar
    45    29    31    1
    46    30    33    1
    47    31    32    1
    48    32    33    1
    49    32    35    1
    50    34    97    1
    51    34    98    1
    52    34    99    1
    53    35    61    1
    54    36    37    1
    55    36    60    1
    56    37    38    1
    57    38    39    1
    58    39    40    1
    59    40    41    1
    60    41    42    1
    61    45   100    1
    62    47   101    1
    63    47   102    1
    64    47   103    1
    65    48   104    1
    66    49   105    1
    67    49   106    1
    68    49   107    1
    69    50   108    1
    70    51    59    1
    71    52   109    1
    72    52   110    1
    73    52   111    1
    74    53    54    1
    75    54    55    2
    76    54    56    1
    77    56   112    1
    78    56   113    1
    79    56   114    1
    80    57   115    1
    81    57   116    1
    82    57   117    1
    83    58   118    1
    84    58   119    1
    85    58   120    1
    86    59   121    1
    87    59   122    1
    88    59   123    1
    89    60    61    2
    90     1    47    1
    91     1    62    1
    92     2    63    1
    93     3    64    1
    94     4    65    1
    95     5     6    1
    96     7     8    2
    97     9    78    1
    98    15    79    1
    99    18    80    1
   100    18    81    1
   101    19    82    1
   102    19    83    1
   103    20    23    1
   104    21    84    1
   105    21    85    1
   106    22    86    1
   107    22    87    1
   108    27    45    1
   109    28    34    1
   110    32    58    1
   111    33    46    2
   112    36    51    1
   113    36    66    1
   114    37    52    1
   115    37    67    1
   116    38    53    1
   117    38    68    1
   118    42    48    1
   119    42    72    1
   120    43    44    2
   121    60    73    1
   122    61    74    1
   123    39    69    1
   124    39    57    1
   125    40    70    1
   126    40    50    1
   127    41    71    1
   128    41    49    1
