@<TRIPOS>MOLECULE
*****
 123 128 0 0 0
SMALL
GASTEIGER

@<TRIPOS>ATOM
     1 C         -3.245174   4.08426   -1.346903 C.3        1 UNL1     0.0009
     2 C         -4.669436   4.540289   -2.442601 C.2        1 UNL1     -0.0787
     3 C         -5.199859   5.271237   -3.574154 C.2        1 UNL1     -0.0649
     4 C         -6.756065   5.180428   -4.234709 C.2        1 UNL1     -0.0542
     5 C         -7.546779   5.43413   -5.382526 C.2        1 UNL1     0.0115
     6 C         -7.555929   6.122834   -6.774979 C.3        1 UNL1     -0.0348
     7 C         -8.970937   4.706429   -5.521142 C.2        1 UNL1     0.2441
     8 O         -10.03207   5.272678   -5.297792 O.2        1 UNL1     -0.2702
     9 N         -8.934059   3.457799   -6.165902 N.am        1 UNL1     -0.2772
     10 C         -8.693135   2.454324   -5.255784 C.2        1 UNL1     0.1049
     11 C         -7.428396   2.25194   -4.933762 C.2        1 UNL1     0.0801
     12 C         -9.439711   1.564508   -3.040342 C.ar        1 UNL1     0.0753
     13 C         -8.058699   1.561561   -2.664305 C.ar        1 UNL1     0.0305
     14 C         -6.998136   1.780973   -3.64518 C.2        1 UNL1     0.0924
     15 N         -6.305937   2.723803   -5.502937 N.pl3        1 UNL1     -0.3170
     16 C         -5.187714   2.066287   -4.880438 C.3        1 UNL1     0.1275
     17 N         -5.678045   1.715415   -3.496896 N.2        1 UNL1     -0.2557
     18 C         -4.981979   0.739948   -5.605834 C.3        1 UNL1     0.0016
     19 C         -4.799421   1.020018   -7.089014 C.3        1 UNL1     0.0026
     20 N         -3.648494   1.895597   -7.261518 N.3        1 UNL1     -0.3018
     21 C         -3.726661   3.172769   -6.549416 C.3        1 UNL1     0.0026
     22 C         -3.905255   2.867652   -5.061161 C.3        1 UNL1     0.0016
     23 C         -3.207656   1.982658   -8.639461 C.3        1 UNL1     0.0012
     24 C         -2.568499   0.658063   -9.085201 C.3        1 UNL1     -0.0339
     25 C         -3.577181   -0.22958   -9.832669 C.3        1 UNL1     -0.0615
     26 C         -1.334337   0.932576   -9.926787 C.3        1 UNL1     -0.0615
     27 C         -10.437466   1.235611   -2.125776 C.ar        1 UNL1     0.1347
     28 C         -10.17488   0.849966   -0.823326 C.ar        1 UNL1     0.0342
     29 C         -8.811919   0.901653   -0.46162 C.ar        1 UNL1     0.1435
     30 C         -7.804713   1.264124   -1.356813 C.ar        1 UNL1     0.0774
     31 O         -8.383467   0.450944   0.73767 O.3        1 UNL1     -0.4436
     32 C         -6.977582   0.222638   0.55812 C.3        1 UNL1     0.3143
     33 C         -6.57754   1.109042   -0.603977 C.2        1 UNL1     0.2504
     34 C         -11.164059   0.24491   0.133509 C.3        1 UNL1     -0.0327
     35 O         -6.31149   0.732109   1.720021 O.2        1 UNL1     -0.4528
     36 C         -3.203037   -1.402022   2.157164 C.3        1 UNL1     0.0854
     37 C         -2.021373   -1.660271   1.144987 C.3        1 UNL1     0.0236
     38 C         -0.559761   -1.323036   1.712177 C.3        1 UNL1     0.1131
     39 C         -0.284162   0.080765   2.387202 C.3        1 UNL1     0.0200
     40 C         -0.874237   1.480274   1.697547 C.3        1 UNL1     0.0661
     41 C         -0.708513   1.933015   0.071149 C.3        1 UNL1     0.0091
     42 C         -1.828   2.898122   -1.015461 C.3        1 UNL1     0.0661
     43 C         -9.768149   1.842458   -4.4606 C.2        1 UNL1     0.2131
     44 O         -10.811027   1.502357   -4.989254 O.2        1 UNL1     -0.2851
     45 O         -11.75954   1.307291   -2.559852 O.3        1 UNL1     -0.5056
     46 O         -5.494994   1.595916   -0.842518 O.2        1 UNL1     -0.2836
     47 C         -2.904616   5.257387   -0.388897 C.3        1 UNL1     -0.0566
     48 O         -0.752507   3.777698   -1.533898 O.3        1 UNL1     -0.3909
     49 C         -0.247579   0.732553   -0.725045 C.3        1 UNL1     -0.0577
     50 O         -2.191346   1.740116   2.139621 O.3        1 UNL1     -0.3910
     51 O         -2.85456   -0.750164   3.357612 O.3        1 UNL1     -0.3753
     52 C         -2.436081   -1.338401   -0.32789 C.3        1 UNL1     -0.0564
     53 O         0.552827   -1.895881   0.883731 O.3        1 UNL1     -0.4608
     54 C         1.038102   -3.173928   0.978777 C.2        1 UNL1     0.3042
     55 O         1.290922   -3.802369   2.005901 O.2        1 UNL1     -0.2512
     56 C         1.208457   -3.852931   -0.350376 C.3        1 UNL1     0.0332
     57 C         -0.456108   -0.101613   3.966869 C.3        1 UNL1     -0.0567
     58 C         -6.825428   -1.256393   0.132859 C.3        1 UNL1     0.0210
     59 C         -3.578217   -1.185184   4.507805 C.3        1 UNL1     0.0372
     60 C         -4.366342   -0.666127   1.591176 C.2        1 UNL1     -0.0208
     61 C         -5.076245   0.345544   2.092478 C.2        1 UNL1     0.0882
     62 H         -3.911281   3.411489   -0.793376 H        1 UNL1     0.0365
     63 H         -5.487677   4.020553   -1.939782 H        1 UNL1     0.0576
     64 H         -4.553275   5.857475   -4.230936 H        1 UNL1     0.0615
     65 H         -7.332488   4.650208   -3.471762 H        1 UNL1     0.0622
     66 H         -3.574758   -2.40518   2.409241 H        1 UNL1     0.0645
     67 H         -1.975843   -2.760013   1.060995 H        1 UNL1     0.0362
     68 H         -0.506706   -2.056182   2.531448 H        1 UNL1     0.0741
     69 H         0.78331   0.255892   2.402752 H        1 UNL1     0.0359
     70 H         -0.252749   2.229303   2.224585 H        1 UNL1     0.0600
     71 H         0.22519   2.526073   0.129779 H        1 UNL1     0.0348
     72 H         -2.131386   3.130695   0.015647 H        1 UNL1     0.0602
     73 H         -4.687133   -1.150402   0.702459 H        1 UNL1     0.0628
     74 H         -4.784203   0.931131   2.964852 H        1 UNL1     0.1022
     75 H         -7.149661   7.16044   -6.701803 H        1 UNL1     0.0279
     76 H         -6.924608   5.677523   -7.540617 H        1 UNL1     0.0279
     77 H         -8.572722   6.313952   -7.148218 H        1 UNL1     0.0279
     78 H         -8.174921   3.445219   -6.843862 H        1 UNL1     0.1553
     79 H         -6.267886   3.097269   -6.433532 H        1 UNL1     0.1484
     80 H         -4.105943   0.233373   -5.183093 H        1 UNL1     0.0317
     81 H         -5.835908   0.072039   -5.449776 H        1 UNL1     0.0317
     82 H         -5.70308   1.461774   -7.53417 H        1 UNL1     0.0428
     83 H         -4.656103   0.060809   -7.587439 H        1 UNL1     0.0428
     84 H         -2.817436   3.776546   -6.630495 H        1 UNL1     0.0428
     85 H         -4.514546   3.820813   -6.957574 H        1 UNL1     0.0428
     86 H         -3.82489   3.814328   -4.559829 H        1 UNL1     0.0317
     87 H         -3.039389   2.307941   -4.686866 H        1 UNL1     0.0317
     88 H         -4.087036   2.175274   -9.267859 H        1 UNL1     0.0429
     89 H         -2.51784   2.823926   -8.785045 H        1 UNL1     0.0429
     90 H         -2.213535   0.115142   -8.201205 H        1 UNL1     0.0308
     91 H         -3.105409   -1.146408   -10.198675 H        1 UNL1     0.0233
     92 H         -4.415837   -0.492247   -9.183615 H        1 UNL1     0.0233
     93 H         -4.011447   0.274626   -10.704462 H        1 UNL1     0.0233
     94 H         -1.480828   0.557687   -10.945529 H        1 UNL1     0.0233
     95 H         -1.154824   2.009689   -9.986497 H        1 UNL1     0.0233
     96 H         -0.448283   0.449892   -9.505013 H        1 UNL1     0.0233
     97 H         -10.848146   -0.73415   0.481174 H        1 UNL1     0.0280
     98 H         -11.294374   0.856594   1.035793 H        1 UNL1     0.0280
     99 H         -12.140883   0.1358   -0.365495 H        1 UNL1     0.0280
     100 H         -11.98467   2.10883   -2.998569 H        1 UNL1     0.2922
     101 H         -3.268634   5.031321   0.613121 H        1 UNL1     0.0236
     102 H         -3.264387   6.221426   -0.746913 H        1 UNL1     0.0236
     103 H         -1.816605   5.39077   -0.267921 H        1 UNL1     0.0236
     104 H         -1.038629   4.110111   -2.407172 H        1 UNL1     0.2098
     105 H         -1.005592   0.309868   -1.379694 H        1 UNL1     0.0234
     106 H         0.684262   0.878817   -1.271129 H        1 UNL1     0.0234
     107 H         0.0   0.0   0.0 H        1 UNL1     0.0234
     108 H         -2.591086   2.367823   1.507198 H        1 UNL1     0.2098
     109 H         -1.597172   -0.947085   -0.920187 H        1 UNL1     0.0234
     110 H         -2.882825   -2.193836   -0.845958 H        1 UNL1     0.0234
     111 H         -3.215178   -0.56559   -0.369304 H        1 UNL1     0.0234
     112 H         1.577379   -4.872482   -0.20287 H        1 UNL1     0.0342
     113 H         0.288008   -3.850855   -0.93228 H        1 UNL1     0.0342
     114 H         1.965758   -3.300359   -0.923372 H        1 UNL1     0.0342
     115 H         -1.437034   -0.524015   4.224839 H        1 UNL1     0.0234
     116 H         0.305286   -0.735208   4.426091 H        1 UNL1     0.0234
     117 H         -0.48324   0.85323   4.519572 H        1 UNL1     0.0234
     118 H         -6.355488   -1.868566   0.92242 H        1 UNL1     0.0309
     119 H         -7.772987   -1.718278   -0.162094 H        1 UNL1     0.0309
     120 H         -6.148923   -1.381177   -0.719711 H        1 UNL1     0.0309
     121 H         -4.412778   -0.499378   4.651102 H        1 UNL1     0.0524
     122 H         -3.998052   -2.196841   4.38003 H        1 UNL1     0.0524
     123 H         -2.933485   -1.178845   5.38209 H        1 UNL1     0.0524
@<TRIPOS>BOND
     1     1     2    1
     2     1    42    1
     3     2     3    2
     4     3     4    1
     5     4     5    2
     6     5     7    1
     7     6    75    1
     8     6    76    1
     9     6    77    1
    10     7     9   am
    11     9    10    1
    12    10    11    2
    13    10    43    1
    14    11    14    1
    15    11    15    1
    16    12    13   ar
    17    12    27   ar
    18    12    43    1
    19    13    14    1
    20    13    30   ar
    21    14    17    2
    22    15    16    1
    23    16    17    1
    24    16    18    1
    25    16    22    1
    26    18    19    1
    27    19    20    1
    28    20    21    1
    29    21    22    1
    30    23    24    1
    31    23    88    1
    32    23    89    1
    33    24    25    1
    34    24    26    1
    35    24    90    1
    36    25    91    1
    37    25    92    1
    38    25    93    1
    39    26    94    1
    40    26    95    1
    41    26    96    1
    42    27    28   ar
    43    28    29   ar
    44    29    30   ar
    45    29    31    1
    46    30    33    1
    47    31    32    1
    48    32    33    1
    49    32    35    1
    50    34    97    1
    51    34    98    1
    52    34    99    1
    53    35    61    1
    54    36    37    1
    55    36    60    1
    56    37    38    1
    57    38    39    1
    58    39    40    1
    59    40    41    1
    60    41    42    1
    61    45   100    1
    62    47   101    1
    63    47   102    1
    64    47   103    1
    65    48   104    1
    66    49   105    1
    67    49   106    1
    68    49   107    1
    69    50   108    1
    70    51    59    1
    71    52   109    1
    72    52   110    1
    73    52   111    1
    74    53    54    1
    75    54    55    2
    76    54    56    1
    77    56   112    1
    78    56   113    1
    79    56   114    1
    80    57   115    1
    81    57   116    1
    82    57   117    1
    83    58   118    1
    84    58   119    1
    85    58   120    1
    86    59   121    1
    87    59   122    1
    88    59   123    1
    89    60    61    2
    90     1    47    1
    91     1    62    1
    92     2    63    1
    93     3    64    1
    94     4    65    1
    95     5     6    1
    96     7     8    2
    97     9    78    1
    98    15    79    1
    99    18    80    1
   100    18    81    1
   101    19    82    1
   102    19    83    1
   103    20    23    1
   104    21    84    1
   105    21    85    1
   106    22    86    1
   107    22    87    1
   108    27    45    1
   109    28    34    1
   110    32    58    1
   111    33    46    2
   112    36    51    1
   113    36    66    1
   114    37    52    1
   115    37    67    1
   116    38    53    1
   117    38    68    1
   118    42    48    1
   119    42    72    1
   120    43    44    2
   121    60    73    1
   122    61    74    1
   123    39    69    1
   124    39    57    1
   125    40    70    1
   126    40    50    1
   127    41    71    1
   128    41    49    1
