@<TRIPOS>MOLECULE
*****
 123 128 0 0 0
SMALL
GASTEIGER

@<TRIPOS>ATOM
     1 C         5.167827   1.744498   0.499875 C.3        1 UNL1     0.0009
     2 C         6.606432   2.549771   -0.348057 C.2        1 UNL1     -0.0787
     3 C         7.889319   2.450824   -1.011726 C.2        1 UNL1     -0.0649
     4 C         8.768821   3.685475   -1.765697 C.2        1 UNL1     -0.0542
     5 C         9.79056   3.97758   -2.702607 C.2        1 UNL1     0.0115
     6 C         10.919735   3.351511   -3.566508 C.3        1 UNL1     -0.0348
     7 C         9.88788   5.460867   -3.308723 C.2        1 UNL1     0.2441
     8 O         10.711706   6.281899   -2.929588 O.2        1 UNL1     -0.2702
     9 N         9.139693   5.668524   -4.480579 N.am        1 UNL1     -0.2772
     10 C         7.856733   6.056021   -4.168838 C.2        1 UNL1     0.1049
     11 C         7.009821   5.085133   -3.878426 C.2        1 UNL1     0.0801
     12 C         6.557145   7.663327   -2.759948 C.ar        1 UNL1     0.0753
     13 C         5.796604   6.535853   -2.313865 C.ar        1 UNL1     0.0305
     14 C         5.913698   5.230175   -2.959267 C.2        1 UNL1     0.0924
     15 N         7.131802   3.756097   -4.037526 N.pl3        1 UNL1     -0.3170
     16 C         5.861033   3.157735   -3.725498 C.3        1 UNL1     0.1275
     17 N         5.223693   4.113245   -2.746457 N.2        1 UNL1     -0.2557
     18 C         5.010269   3.217578   -4.990536 C.3        1 UNL1     0.0016
     19 C         5.766513   2.533154   -6.118033 C.3        1 UNL1     0.0026
     20 N         6.035101   1.15481   -5.731954 N.3        1 UNL1     -0.3018
     21 C         6.796344   0.993707   -4.491421 C.3        1 UNL1     0.0026
     22 C         6.016253   1.684577   -3.371577 C.3        1 UNL1     0.0016
     23 C         6.480848   0.335145   -6.841054 C.3        1 UNL1     0.0012
     24 C         5.325707   0.082965   -7.822793 C.3        1 UNL1     -0.0339
     25 C         5.344336   1.090717   -8.983889 C.3        1 UNL1     -0.0615
     26 C         5.372562   -1.349589   -8.325162 C.3        1 UNL1     -0.0615
     27 C         6.352468   8.931074   -2.220465 C.ar        1 UNL1     0.1347
     28 C         5.392041   9.201121   -1.261974 C.ar        1 UNL1     0.0342
     29 C         4.688971   8.067073   -0.802853 C.ar        1 UNL1     0.1435
     30 C         4.908365   6.784976   -1.308139 C.ar        1 UNL1     0.0774
     31 O         3.646679   8.181211   0.048973 O.3        1 UNL1     -0.4436
     32 C         2.9244   6.9489   -0.094543 C.3        1 UNL1     0.3143
     33 C         3.937884   5.955193   -0.625209 C.2        1 UNL1     0.2504
     34 C         4.945413   10.567459   -0.82181 C.3        1 UNL1     -0.0327
     35 O         2.561346   6.512244   1.221047 O.2        1 UNL1     -0.4528
     36 C         -0.682359   4.582307   0.818792 C.3        1 UNL1     0.0854
     37 C         -0.987069   3.322064   -0.07924 C.3        1 UNL1     0.0236
     38 C         -1.589744   2.061308   0.707539 C.3        1 UNL1     0.1131
     39 C         -0.866441   1.52969   2.010031 C.3        1 UNL1     0.0200
     40 C         0.794584   1.383017   2.053851 C.3        1 UNL1     0.0661
     41 C         1.755314   0.613712   0.886469 C.3        1 UNL1     0.0091
     42 C         3.464051   0.9752   0.325267 C.3        1 UNL1     0.0661
     43 C         7.508849   7.455148   -3.879403 C.2        1 UNL1     0.2131
     44 O         7.910494   8.353061   -4.597157 O.2        1 UNL1     -0.2851
     45 O         7.16617   9.9657   -2.677495 O.3        1 UNL1     -0.5056
     46 O         3.95285   4.751628   -0.494583 O.2        1 UNL1     -0.2836
     47 C         5.561586   1.314544   1.93865 C.3        1 UNL1     -0.0566
     48 O         3.911529   -0.43622   0.407569 O.3        1 UNL1     -0.3909
     49 C         0.922964   0.381865   -0.354874 C.3        1 UNL1     -0.0577
     50 O         1.394974   2.600417   2.447796 O.3        1 UNL1     -0.3910
     51 O         -0.808811   4.392517   2.209987 O.3        1 UNL1     -0.3753
     52 C         0.059127   3.161051   -1.230108 C.3        1 UNL1     -0.0564
     53 O         -2.191603   1.022861   -0.193415 O.3        1 UNL1     -0.4608
     54 C         -2.415334   -0.287027   0.141352 C.2        1 UNL1     0.3042
     55 O         -1.843119   -1.280338   -0.305571 O.2        1 UNL1     -0.2512
     56 C         -3.446563   -0.464592   1.219198 C.3        1 UNL1     0.0332
     57 C         -1.58904   2.198993   3.270212 C.3        1 UNL1     -0.0567
     58 C         1.851113   7.194872   -1.180398 C.3        1 UNL1     0.0210
     59 C         -1.161021   5.563581   2.945122 C.3        1 UNL1     0.0372
     60 C         0.647431   5.210523   0.590398 C.2        1 UNL1     -0.0208
     61 C         1.559265   5.645016   1.461328 C.2        1 UNL1     0.0882
     62 H         4.692435   2.728981   0.586517 H        1 UNL1     0.0365
     63 H         6.34073   3.603736   -0.243033 H        1 UNL1     0.0576
     64 H         8.346672   1.483695   -1.232175 H        1 UNL1     0.0615
     65 H         8.281803   4.601154   -1.419532 H        1 UNL1     0.0622
     66 H         -1.426005   5.329383   0.50748 H        1 UNL1     0.0645
     67 H         -1.851427   3.632101   -0.691876 H        1 UNL1     0.0362
     68 H         -2.53708   2.498778   1.057819 H        1 UNL1     0.0741
     69 H         -1.198962   0.51879   2.204761 H        1 UNL1     0.0359
     70 H         0.9045   0.72249   2.935147 H        1 UNL1     0.0600
     71 H         1.79752   -0.40754   1.31334 H        1 UNL1     0.0348
     72 H         3.356933   1.463343   1.304837 H        1 UNL1     0.0602
     73 H         0.767119   5.407833   -0.445938 H        1 UNL1     0.0628
     74 H         1.539864   5.434219   2.531107 H        1 UNL1     0.1022
     75 H         10.963221   2.246181   -3.41357 H        1 UNL1     0.0279
     76 H         10.807885   3.434522   -4.645242 H        1 UNL1     0.0279
     77 H         11.924493   3.655488   -3.238239 H        1 UNL1     0.0279
     78 H         9.077941   4.798688   -5.005602 H        1 UNL1     0.1553
     79 H         7.797768   3.327737   -4.65391 H        1 UNL1     0.1484
     80 H         4.048345   2.727272   -4.798005 H        1 UNL1     0.0317
     81 H         4.784799   4.254522   -5.261762 H        1 UNL1     0.0317
     82 H         6.697932   3.063856   -6.364459 H        1 UNL1     0.0428
     83 H         5.142824   2.58884   -7.01076 H        1 UNL1     0.0428
     84 H         6.915461   -0.049368   -4.182199 H        1 UNL1     0.0428
     85 H         7.826851   1.361053   -4.593543 H        1 UNL1     0.0428
     86 H         6.531054   1.433743   -2.462704 H        1 UNL1     0.0317
     87 H         5.036285   1.20759   -3.248116 H        1 UNL1     0.0317
     88 H         7.275935   0.877842   -7.368891 H        1 UNL1     0.0429
     89 H         6.915069   -0.60962   -6.489421 H        1 UNL1     0.0429
     90 H         4.372876   0.182322   -7.289451 H        1 UNL1     0.0308
     91 H         6.292275   1.05209   -9.528886 H        1 UNL1     0.0233
     92 H         4.523432   0.895638   -9.677913 H        1 UNL1     0.0233
     93 H         5.216128   2.12473   -8.641521 H        1 UNL1     0.0233
     94 H         4.676058   -1.479884   -9.160471 H        1 UNL1     0.0233
     95 H         6.377872   -1.586886   -8.684333 H        1 UNL1     0.0233
     96 H         5.103037   -2.057948   -7.536776 H        1 UNL1     0.0233
     97 H         4.150859   10.518122   -0.083243 H        1 UNL1     0.0280
     98 H         5.757801   11.13689   -0.351671 H        1 UNL1     0.0280
     99 H         4.573508   11.132358   -1.692253 H        1 UNL1     0.0280
     100 H         6.700158   10.716276   -3.001674 H        1 UNL1     0.2922
     101 H         4.698077   0.880002   2.44182 H        1 UNL1     0.0236
     102 H         6.010596   2.119923   2.518942 H        1 UNL1     0.0236
     103 H         6.318434   0.512438   1.938664 H        1 UNL1     0.0236
     104 H         4.332111   -0.561867   1.280663 H        1 UNL1     0.2098
     105 H         0.712475   1.280804   -0.928822 H        1 UNL1     0.0234
     106 H         1.292447   -0.406833   -1.010134 H        1 UNL1     0.0234
     107 H         0.0   -0.0   0.0 H        1 UNL1     0.0234
     108 H         1.195583   3.259624   1.755368 H        1 UNL1     0.2098
     109 H         1.082506   3.040643   -0.848126 H        1 UNL1     0.0234
     110 H         -0.176084   2.338047   -1.913543 H        1 UNL1     0.0234
     111 H         0.086363   4.046491   -1.879108 H        1 UNL1     0.0234
     112 H         -3.57412   -1.52858   1.440566 H        1 UNL1     0.0342
     113 H         -3.198117   0.094821   2.11985 H        1 UNL1     0.0342
     114 H         -4.405258   -0.081525   0.84326 H        1 UNL1     0.0342
     115 H         -2.653465   1.931279   3.320395 H        1 UNL1     0.0234
     116 H         -1.139206   1.938024   4.230209 H        1 UNL1     0.0234
     117 H         -1.648668   3.299336   3.209951 H        1 UNL1     0.0234
     118 H         0.949711   7.682335   -0.769471 H        1 UNL1     0.0309
     119 H         2.222229   7.782711   -2.025928 H        1 UNL1     0.0309
     120 H         1.462591   6.263228   -1.606071 H        1 UNL1     0.0309
     121 H         -0.361852   6.291559   2.808253 H        1 UNL1     0.0524
     122 H         -2.094436   6.022515   2.578854 H        1 UNL1     0.0524
     123 H         -1.274945   5.325719   3.998942 H        1 UNL1     0.0524
@<TRIPOS>BOND
     1     1     2    1
     2     1    42    1
     3     2     3    2
     4     3     4    1
     5     4     5    2
     6     5     7    1
     7     6    75    1
     8     6    76    1
     9     6    77    1
    10     7     9   am
    11     9    10    1
    12    10    11    2
    13    10    43    1
    14    11    14    1
    15    11    15    1
    16    12    13   ar
    17    12    27   ar
    18    12    43    1
    19    13    14    1
    20    13    30   ar
    21    14    17    2
    22    15    16    1
    23    16    17    1
    24    16    18    1
    25    16    22    1
    26    18    19    1
    27    19    20    1
    28    20    21    1
    29    21    22    1
    30    23    24    1
    31    23    88    1
    32    23    89    1
    33    24    25    1
    34    24    26    1
    35    24    90    1
    36    25    91    1
    37    25    92    1
    38    25    93    1
    39    26    94    1
    40    26    95    1
    41    26    96    1
    42    27    28   ar
    43    28    29   ar
    44    29    30   ar
    45    29    31    1
    46    30    33    1
    47    31    32    1
    48    32    33    1
    49    32    35    1
    50    34    97    1
    51    34    98    1
    52    34    99    1
    53    35    61    1
    54    36    37    1
    55    36    60    1
    56    37    38    1
    57    38    39    1
    58    39    40    1
    59    40    41    1
    60    41    42    1
    61    45   100    1
    62    47   101    1
    63    47   102    1
    64    47   103    1
    65    48   104    1
    66    49   105    1
    67    49   106    1
    68    49   107    1
    69    50   108    1
    70    51    59    1
    71    52   109    1
    72    52   110    1
    73    52   111    1
    74    53    54    1
    75    54    55    2
    76    54    56    1
    77    56   112    1
    78    56   113    1
    79    56   114    1
    80    57   115    1
    81    57   116    1
    82    57   117    1
    83    58   118    1
    84    58   119    1
    85    58   120    1
    86    59   121    1
    87    59   122    1
    88    59   123    1
    89    60    61    2
    90     1    47    1
    91     1    62    1
    92     2    63    1
    93     3    64    1
    94     4    65    1
    95     5     6    1
    96     7     8    2
    97     9    78    1
    98    15    79    1
    99    18    80    1
   100    18    81    1
   101    19    82    1
   102    19    83    1
   103    20    23    1
   104    21    84    1
   105    21    85    1
   106    22    86    1
   107    22    87    1
   108    27    45    1
   109    28    34    1
   110    32    58    1
   111    33    46    2
   112    36    51    1
   113    36    66    1
   114    37    52    1
   115    37    67    1
   116    38    53    1
   117    38    68    1
   118    42    48    1
   119    42    72    1
   120    43    44    2
   121    60    73    1
   122    61    74    1
   123    39    69    1
   124    39    57    1
   125    40    70    1
   126    40    50    1
   127    41    71    1
   128    41    49    1
