@<TRIPOS>MOLECULE
*****
 123 128 0 0 0
SMALL
GASTEIGER

@<TRIPOS>ATOM
     1 C         5.167231   1.748831   0.490417 C.3        1 UNL1     0.0009
     2 C         6.603647   2.555299   -0.360086 C.2        1 UNL1     -0.0787
     3 C         7.885321   2.457395   -1.026249 C.2        1 UNL1     -0.0649
     4 C         8.762522   3.692834   -1.781607 C.2        1 UNL1     -0.0542
     5 C         9.782255   3.985869   -2.720412 C.2        1 UNL1     0.0115
     6 C         10.910192   3.360787   -3.586641 C.3        1 UNL1     -0.0348
     7 C         9.87739   5.469372   -3.326348 C.2        1 UNL1     0.2441
     8 O         10.701382   6.290875   -2.948597 O.2        1 UNL1     -0.2702
     9 N         9.126804   5.676804   -4.496708 N.am        1 UNL1     -0.2772
     10 C         7.844182   6.063344   -4.182401 C.2        1 UNL1     0.1049
     11 C         6.998497   5.091804   -3.890597 C.2        1 UNL1     0.0801
     12 C         6.54621   7.669412   -2.770612 C.ar        1 UNL1     0.0753
     13 C         5.787302   6.541308   -2.323344 C.ar        1 UNL1     0.0305
     14 C         5.904047   5.235869   -2.969293 C.2        1 UNL1     0.0924
     15 N         7.121082   3.762892   -4.050261 N.pl3        1 UNL1     -0.3170
     16 C         5.851326   3.163582   -3.735934 C.3        1 UNL1     0.1275
     17 N         5.215219   4.118414   -2.75543 N.2        1 UNL1     -0.2557
     18 C         4.998086   3.223153   -4.999316 C.3        1 UNL1     0.0016
     19 C         5.752625   2.539524   -6.128436 C.3        1 UNL1     0.0026
     20 N         6.022901   1.16127   -5.743217 N.3        1 UNL1     -0.3018
     21 C         6.786643   1.000384   -4.504192 C.3        1 UNL1     0.0026
     22 C         6.008237   1.690444   -3.382676 C.3        1 UNL1     0.0016
     23 C         6.467072   0.342184   -6.853376 C.3        1 UNL1     0.0012
     24 C         5.311326   0.093092   -7.83519 C.3        1 UNL1     -0.0339
     25 C         5.34666   1.085714   -9.008865 C.3        1 UNL1     -0.0615
     26 C         5.340292   -1.34621   -8.319287 C.3        1 UNL1     -0.0615
     27 C         6.341704   8.936887   -2.230423 C.ar        1 UNL1     0.1347
     28 C         5.38294   9.206039   -1.270017 C.ar        1 UNL1     0.0342
     29 C         4.681533   8.071396   -0.809822 C.ar        1 UNL1     0.1435
     30 C         4.900832   6.789575   -1.315847 C.ar        1 UNL1     0.0774
     31 O         3.640807   8.18461   0.044038 O.3        1 UNL1     -0.4436
     32 C         2.919097   6.95184   -0.098391 C.3        1 UNL1     0.3143
     33 C         3.932238   5.958958   -0.631254 C.2        1 UNL1     0.2504
     34 C         4.936226   10.571962   -0.828655 C.3        1 UNL1     -0.0327
     35 O         2.558878   6.514611   1.217788 O.2        1 UNL1     -0.4528
     36 C         -0.684273   4.58255   0.821306 C.3        1 UNL1     0.0854
     37 C         -0.98985   3.322319   -0.07645 C.3        1 UNL1     0.0236
     38 C         -1.590143   2.060956   0.711177 C.3        1 UNL1     0.1131
     39 C         -0.863968   1.529514   2.012141 C.3        1 UNL1     0.0200
     40 C         0.797238   1.383969   2.052725 C.3        1 UNL1     0.0661
     41 C         1.756244   0.615611   0.883305 C.3        1 UNL1     0.0091
     42 C         3.463649   0.978407   0.318902 C.3        1 UNL1     0.0661
     43 C         7.495898   7.462162   -3.89195 C.2        1 UNL1     0.2131
     44 O         7.895544   8.360527   -4.610254 O.2        1 UNL1     -0.2851
     45 O         7.153815   9.972182   -2.688764 O.3        1 UNL1     -0.5056
     46 O         3.94828   4.755372   -0.500955 O.2        1 UNL1     -0.2836
     47 C         5.564056   1.318793   1.928325 C.3        1 UNL1     -0.0566
     48 O         3.912252   -0.432726   0.399992 O.3        1 UNL1     -0.3909
     49 C         0.921663   0.383498   -0.35649 C.3        1 UNL1     -0.0577
     50 O         1.397552   2.601683   2.445814 O.3        1 UNL1     -0.3910
     51 O         -0.807915   4.392331   2.212694 O.3        1 UNL1     -0.3753
     52 C         0.054238   3.162307   -1.229371 C.3        1 UNL1     -0.0564
     53 O         -2.193026   1.022318   -0.188873 O.3        1 UNL1     -0.4608
     54 C         -2.427316   -0.284568   0.150372 C.2        1 UNL1     0.3042
     55 O         -1.85835   -1.283523   -0.28804 O.2        1 UNL1     -0.2512
     56 C         -3.466989   -0.450637   1.221919 C.3        1 UNL1     0.0332
     57 C         -1.584597   2.198012   3.273878 C.3        1 UNL1     -0.0567
     58 C         1.843552   7.197342   -1.182116 C.3        1 UNL1     0.0210
     59 C         -1.120884   5.571047   2.953332 C.3        1 UNL1     0.0372
     60 C         0.644644   5.211733   0.590505 C.2        1 UNL1     -0.0208
     61 C         1.557856   5.646637   1.459785 C.2        1 UNL1     0.0882
     62 H         4.691332   2.732966   0.578218 H        1 UNL1     0.0365
     63 H         6.337426   3.609055   -0.254289 H        1 UNL1     0.0576
     64 H         8.34291   1.490634   -1.247817 H        1 UNL1     0.0615
     65 H         8.275545   4.608093   -1.434279 H        1 UNL1     0.0622
     66 H         -1.429029   5.329192   0.511611 H        1 UNL1     0.0645
     67 H         -1.855598   3.631914   -0.687343 H        1 UNL1     0.0362
     68 H         -2.537102   2.497691   1.06339 H        1 UNL1     0.0741
     69 H         -1.195421   0.518339   2.207262 H        1 UNL1     0.0359
     70 H         0.909305   0.723301   2.933645 H        1 UNL1     0.0600
     71 H         1.799972   -0.405718   1.309841 H        1 UNL1     0.0348
     72 H         3.358083   1.466237   1.298797 H        1 UNL1     0.0602
     73 H         0.7622   5.40938   -0.44601 H        1 UNL1     0.0628
     74 H         1.54066   5.435564   2.529546 H        1 UNL1     0.1022
     75 H         10.954729   2.25545   -3.434061 H        1 UNL1     0.0279
     76 H         10.796206   3.443987   -4.665137 H        1 UNL1     0.0279
     77 H         11.915371   3.665373   -3.260233 H        1 UNL1     0.0279
     78 H         9.064637   4.807055   -5.021827 H        1 UNL1     0.1553
     79 H         7.786152   3.33514   -4.668033 H        1 UNL1     0.1484
     80 H         4.036871   2.73214   -4.805053 H        1 UNL1     0.0317
     81 H         4.771383   4.260008   -5.26985 H        1 UNL1     0.0317
     82 H         6.683204   3.070926   -6.376525 H        1 UNL1     0.0428
     83 H         5.12718   2.595003   -7.019947 H        1 UNL1     0.0428
     84 H         6.90707   -0.042685   -4.195458 H        1 UNL1     0.0428
     85 H         7.816699   1.368462   -4.608208 H        1 UNL1     0.0428
     86 H         6.52496   1.439739   -2.474859 H        1 UNL1     0.0317
     87 H         5.028836   1.212754   -3.257446 H        1 UNL1     0.0317
     88 H         7.262959   0.884185   -7.380722 H        1 UNL1     0.0429
     89 H         6.899788   -0.603719   -6.50295 H        1 UNL1     0.0429
     90 H         4.358466   0.211962   -7.305906 H        1 UNL1     0.0308
     91 H         6.299654   1.035144   -9.543978 H        1 UNL1     0.0233
     92 H         4.53154   0.885999   -9.708366 H        1 UNL1     0.0233
     93 H         5.220632   2.124699   -8.68105 H        1 UNL1     0.0233
     94 H         4.64553   -1.477365   -9.155911 H        1 UNL1     0.0233
     95 H         6.343685   -1.601973   -8.67107 H        1 UNL1     0.0233
     96 H         5.057627   -2.040733   -7.52323 H        1 UNL1     0.0233
     97 H         4.136835   10.522036   -0.095366 H        1 UNL1     0.0280
     98 H         5.746708   11.138347   -0.3516 H        1 UNL1     0.0280
     99 H         4.571066   11.140198   -1.699781 H        1 UNL1     0.0280
     100 H         6.686686   10.723435   -3.009752 H        1 UNL1     0.2922
     101 H         4.701412   0.884959   2.433586 H        1 UNL1     0.0236
     102 H         6.015021   2.123925   2.507443 H        1 UNL1     0.0236
     103 H         6.32031   0.51613   1.926675 H        1 UNL1     0.0236
     104 H         4.331758   -0.559131   1.273494 H        1 UNL1     0.2098
     105 H         0.708663   1.282569   -0.929302 H        1 UNL1     0.0234
     106 H         1.290946   -0.404148   -1.013126 H        1 UNL1     0.0234
     107 H         0.0   -0.0   0.0 H        1 UNL1     0.0234
     108 H         1.199367   3.260009   1.752202 H        1 UNL1     0.2098
     109 H         1.079199   3.048698   -0.849556 H        1 UNL1     0.0234
     110 H         -0.178422   2.335458   -1.909028 H        1 UNL1     0.0234
     111 H         0.075207   4.045363   -1.881841 H        1 UNL1     0.0234
     112 H         -3.599269   -1.512468   1.45075 H        1 UNL1     0.0342
     113 H         -3.223577   0.115196   2.119932 H        1 UNL1     0.0342
     114 H         -4.421764   -0.067837   0.83587 H        1 UNL1     0.0342
     115 H         -2.654206   1.949712   3.312244 H        1 UNL1     0.0234
     116 H         -1.147819   1.917898   4.234508 H        1 UNL1     0.0234
     117 H         -1.623221   3.299885   3.225672 H        1 UNL1     0.0234
     118 H         0.941987   7.682677   -0.769033 H        1 UNL1     0.0309
     119 H         2.212208   7.786942   -2.027495 H        1 UNL1     0.0309
     120 H         1.455954   6.265574   -1.608358 H        1 UNL1     0.0309
     121 H         -0.299886   6.274271   2.816235 H        1 UNL1     0.0524
     122 H         -2.040804   6.060215   2.592085 H        1 UNL1     0.0524
     123 H         -1.238504   5.332914   4.006685 H        1 UNL1     0.0524
@<TRIPOS>BOND
     1     1     2    1
     2     1    42    1
     3     2     3    2
     4     3     4    1
     5     4     5    2
     6     5     7    1
     7     6    75    1
     8     6    76    1
     9     6    77    1
    10     7     9   am
    11     9    10    1
    12    10    11    2
    13    10    43    1
    14    11    14    1
    15    11    15    1
    16    12    13   ar
    17    12    27   ar
    18    12    43    1
    19    13    14    1
    20    13    30   ar
    21    14    17    2
    22    15    16    1
    23    16    17    1
    24    16    18    1
    25    16    22    1
    26    18    19    1
    27    19    20    1
    28    20    21    1
    29    21    22    1
    30    23    24    1
    31    23    88    1
    32    23    89    1
    33    24    25    1
    34    24    26    1
    35    24    90    1
    36    25    91    1
    37    25    92    1
    38    25    93    1
    39    26    94    1
    40    26    95    1
    41    26    96    1
    42    27    28   ar
    43    28    29   ar
    44    29    30   ar
    45    29    31    1
    46    30    33    1
    47    31    32    1
    48    32    33    1
    49    32    35    1
    50    34    97    1
    51    34    98    1
    52    34    99    1
    53    35    61    1
    54    36    37    1
    55    36    60    1
    56    37    38    1
    57    38    39    1
    58    39    40    1
    59    40    41    1
    60    41    42    1
    61    45   100    1
    62    47   101    1
    63    47   102    1
    64    47   103    1
    65    48   104    1
    66    49   105    1
    67    49   106    1
    68    49   107    1
    69    50   108    1
    70    51    59    1
    71    52   109    1
    72    52   110    1
    73    52   111    1
    74    53    54    1
    75    54    55    2
    76    54    56    1
    77    56   112    1
    78    56   113    1
    79    56   114    1
    80    57   115    1
    81    57   116    1
    82    57   117    1
    83    58   118    1
    84    58   119    1
    85    58   120    1
    86    59   121    1
    87    59   122    1
    88    59   123    1
    89    60    61    2
    90     1    47    1
    91     1    62    1
    92     2    63    1
    93     3    64    1
    94     4    65    1
    95     5     6    1
    96     7     8    2
    97     9    78    1
    98    15    79    1
    99    18    80    1
   100    18    81    1
   101    19    82    1
   102    19    83    1
   103    20    23    1
   104    21    84    1
   105    21    85    1
   106    22    86    1
   107    22    87    1
   108    27    45    1
   109    28    34    1
   110    32    58    1
   111    33    46    2
   112    36    51    1
   113    36    66    1
   114    37    52    1
   115    37    67    1
   116    38    53    1
   117    38    68    1
   118    42    48    1
   119    42    72    1
   120    43    44    2
   121    60    73    1
   122    61    74    1
   123    39    69    1
   124    39    57    1
   125    40    70    1
   126    40    50    1
   127    41    71    1
   128    41    49    1
