@<TRIPOS>MOLECULE
*****
 123 128 0 0 0
SMALL
GASTEIGER

@<TRIPOS>ATOM
     1 C         3.936353   -1.572619   -0.773383 C.3        1 UNL1     0.0009
     2 C         4.458663   -2.738667   -2.116722 C.2        1 UNL1     -0.0787
     3 C         4.884162   -4.055676   -2.541556 C.2        1 UNL1     -0.0649
     4 C         5.134103   -4.609024   -4.121965 C.2        1 UNL1     -0.0542
     5 C         5.235112   -5.755241   -4.94844 C.2        1 UNL1     0.0115
     6 C         5.344805   -7.304828   -4.93997 C.3        1 UNL1     -0.0348
     7 C         5.070263   -5.585135   -6.536167 C.2        1 UNL1     0.2441
     8 O         6.020194   -5.579335   -7.306961 O.2        1 UNL1     -0.2702
     9 N         3.751374   -5.705289   -7.007597 N.am        1 UNL1     -0.2772
     10 C         3.116814   -4.484792   -6.975312 C.2        1 UNL1     0.1049
     11 C         2.599549   -4.128274   -5.813609 C.2        1 UNL1     0.0801
     12 C         3.394352   -2.086878   -7.631294 C.ar        1 UNL1     0.0753
     13 C         3.026566   -1.758199   -6.287676 C.ar        1 UNL1     0.0305
     14 C         2.489958   -2.763852   -5.373473 C.2        1 UNL1     0.0924
     15 N         2.403402   -4.850604   -4.697234 N.pl3        1 UNL1     -0.3170
     16 C         1.650998   -4.040624   -3.776323 C.3        1 UNL1     0.1275
     17 N         2.010029   -2.620911   -4.141336 N.2        1 UNL1     -0.2557
     18 C         0.175831   -4.208109   -4.127793 C.3        1 UNL1     0.0016
     19 C         -0.168558   -5.688448   -4.088009 C.3        1 UNL1     0.0026
     20 N         0.113259   -6.198565   -2.753323 N.3        1 UNL1     -0.3018
     21 C         1.495329   -6.026459   -2.300961 C.3        1 UNL1     0.0026
     22 C         1.818424   -4.531932   -2.344494 C.3        1 UNL1     0.0016
     23 C         -0.454006   -7.511751   -2.520093 C.3        1 UNL1     0.0012
     24 C         0.513738   -8.608156   -2.99245 C.3        1 UNL1     -0.0339
     25 C         -0.233112   -9.750732   -3.700118 C.3        1 UNL1     -0.0615
     26 C         1.587716   -8.006821   -3.882252 C.3        1 UNL1     -0.0615
     27 C         3.790432   -1.101657   -8.532726 C.ar        1 UNL1     0.1347
     28 C         3.819832   0.245465   -8.218959 C.ar        1 UNL1     0.0342
     29 C         3.500736   0.540318   -6.876423 C.ar        1 UNL1     0.1435
     30 C         3.137074   -0.439941   -5.952268 C.ar        1 UNL1     0.0774
     31 O         3.377956   1.814509   -6.444718 O.3        1 UNL1     -0.4436
     32 C         2.611366   1.715283   -5.235021 C.3        1 UNL1     0.3143
     33 C         2.825475   0.297265   -4.745537 C.2        1 UNL1     0.2504
     34 C         3.988969   1.374974   -9.196558 C.3        1 UNL1     -0.0327
     35 O         3.219814   2.585197   -4.272579 O.2        1 UNL1     -0.4528
     36 C         0.409412   3.75831   -2.006849 C.3        1 UNL1     0.0854
     37 C         -0.594651   2.904184   -1.140911 C.3        1 UNL1     0.0236
     38 C         -0.630314   3.278603   0.418025 C.3        1 UNL1     0.1131
     39 C         0.720807   3.363011   1.236326 C.3        1 UNL1     0.0200
     40 C         1.900796   2.200264   1.041176 C.3        1 UNL1     0.0661
     41 C         1.661432   0.521929   1.100378 C.3        1 UNL1     0.0091
     42 C         2.517209   -0.834332   0.209533 C.3        1 UNL1     0.0661
     43 C         3.254217   -3.500849   -8.059438 C.2        1 UNL1     0.2131
     44 O         3.150159   -3.844624   -9.222936 O.2        1 UNL1     -0.2851
     45 O         4.176028   -1.511053   -9.807539 O.3        1 UNL1     -0.5056
     46 O         2.772757   -0.124619   -3.61192 O.2        1 UNL1     -0.2836
     47 C         5.164056   -1.139608   0.07233 C.3        1 UNL1     -0.0566
     48 O         2.708189   -1.664616   1.423316 O.3        1 UNL1     -0.3909
     49 C         0.178319   0.237292   1.017602 C.3        1 UNL1     -0.0577
     50 O         2.754849   2.528817   -0.036029 O.3        1 UNL1     -0.3910
     51 O         1.268829   4.614136   -1.288242 O.3        1 UNL1     -0.3753
     52 C         -0.684236   1.426074   -1.643022 C.3        1 UNL1     -0.0564
     53 O         -1.816918   2.715303   1.143966 O.3        1 UNL1     -0.4608
     54 C         -2.033349   2.793764   2.494866 C.2        1 UNL1     0.3042
     55 O         -2.969541   3.347094   3.070373 O.2        1 UNL1     -0.2512
     56 C         -1.010617   2.056429   3.311609 C.3        1 UNL1     0.0332
     57 C         1.17969   4.895109   1.252918 C.3        1 UNL1     -0.0567
     58 C         1.128889   1.884227   -5.641529 C.3        1 UNL1     0.0210
     59 C         2.411274   3.976357   -0.719099 C.3        1 UNL1     0.0372
     60 C         1.265635   2.971316   -2.935656 C.2        1 UNL1     -0.0208
     61 C         2.571681   3.059016   -3.191188 C.2        1 UNL1     0.0882
     62 H         3.789034   -0.794722   -1.532254 H        1 UNL1     0.0365
     63 H         4.480594   -2.063813   -2.974953 H        1 UNL1     0.0576
     64 H         4.927466   -4.895716   -1.84473 H        1 UNL1     0.0615
     65 H         5.151229   -3.693245   -4.719074 H        1 UNL1     0.0622
     66 H         -0.235309   4.379354   -2.644566 H        1 UNL1     0.0645
     67 H         -1.591086   3.245409   -1.471432 H        1 UNL1     0.0362
     68 H         -0.995467   4.314733   0.35004 H        1 UNL1     0.0741
     69 H         0.49327   3.295116   2.2918 H        1 UNL1     0.0359
     70 H         2.50947   2.392656   1.945368 H        1 UNL1     0.0600
     71 H         1.858421   0.336361   2.174491 H        1 UNL1     0.0348
     72 H         3.189484   0.034364   0.157286 H        1 UNL1     0.0602
     73 H         0.650544   2.339284   -3.526797 H        1 UNL1     0.0628
     74 H         3.278955   3.637712   -2.596114 H        1 UNL1     0.1022
     75 H         5.74494   -7.674833   -5.914661 H        1 UNL1     0.0279
     76 H         6.037986   -7.738192   -4.2225 H        1 UNL1     0.0279
     77 H         4.363514   -7.800443   -4.906288 H        1 UNL1     0.0279
     78 H         3.229131   -6.338103   -6.405197 H        1 UNL1     0.1553
     79 H         2.385779   -5.853741   -4.678821 H        1 UNL1     0.1484
     80 H         -0.429037   -3.636831   -3.413271 H        1 UNL1     0.0317
     81 H         -0.039204   -3.796715   -5.119844 H        1 UNL1     0.0317
     82 H         0.382361   -6.255318   -4.852901 H        1 UNL1     0.0428
     83 H         -1.224239   -5.785296   -4.343371 H        1 UNL1     0.0428
     84 H         1.661346   -6.34489   -1.267108 H        1 UNL1     0.0428
     85 H         2.195853   -6.639502   -2.884708 H        1 UNL1     0.0428
     86 H         2.78375   -4.430857   -1.88415 H        1 UNL1     0.0317
     87 H         1.154281   -3.985014   -1.664133 H        1 UNL1     0.0317
     88 H         -0.613543   -7.627973   -1.440123 H        1 UNL1     0.0429
     89 H         -1.434426   -7.614088   -3.002875 H        1 UNL1     0.0429
     90 H         1.040715   -9.020663   -2.123919 H        1 UNL1     0.0308
     91 H         -0.859654   -10.310496   -2.999253 H        1 UNL1     0.0233
     92 H         -0.857665   -9.362032   -4.507864 H        1 UNL1     0.0233
     93 H         0.450399   -10.473054   -4.16261 H        1 UNL1     0.0233
     94 H         1.49138   -6.915954   -3.90601 H        1 UNL1     0.0233
     95 H         2.578532   -8.249239   -3.487941 H        1 UNL1     0.0233
     96 H         1.513805   -8.382652   -4.906584 H        1 UNL1     0.0233
     97 H         5.02657   1.510837   -9.486652 H        1 UNL1     0.0280
     98 H         3.436436   1.201315   -10.129192 H        1 UNL1     0.0280
     99 H         3.631609   2.313336   -8.741732 H        1 UNL1     0.0280
     100 H         3.471442   -1.574782   -10.42812 H        1 UNL1     0.2922
     101 H         6.000383   -0.906323   -0.586299 H        1 UNL1     0.0236
     102 H         5.435947   -1.86673   0.836758 H        1 UNL1     0.0236
     103 H         4.975891   -0.205406   0.627357 H        1 UNL1     0.0236
     104 H         3.540358   -1.378622   1.848373 H        1 UNL1     0.2098
     105 H         -0.151292   -0.606429   1.618685 H        1 UNL1     0.0234
     106 H         -0.461812   1.101201   1.195989 H        1 UNL1     0.0234
     107 H         -0.0   0.0   0.0 H        1 UNL1     0.0234
     108 H         3.545166   1.959668   0.036334 H        1 UNL1     0.2098
     109 H         -1.715683   1.128346   -1.877941 H        1 UNL1     0.0234
     110 H         -0.039318   1.224541   -2.505117 H        1 UNL1     0.0234
     111 H         -0.33694   0.717465   -0.879344 H        1 UNL1     0.0234
     112 H         -0.707803   2.666713   4.167882 H        1 UNL1     0.0342
     113 H         -1.370595   1.080867   3.634932 H        1 UNL1     0.0342
     114 H         -0.123625   1.892761   2.684214 H        1 UNL1     0.0342
     115 H         1.322951   5.267464   2.276644 H        1 UNL1     0.0234
     116 H         2.101801   5.088352   0.701177 H        1 UNL1     0.0234
     117 H         0.40755   5.589664   0.87964 H        1 UNL1     0.0234
     118 H         0.792451   2.93234   -5.556227 H        1 UNL1     0.0309
     119 H         0.916415   1.520991   -6.652033 H        1 UNL1     0.0309
     120 H         0.446349   1.344895   -4.975672 H        1 UNL1     0.0309
     121 H         3.256482   4.161786   -1.381366 H        1 UNL1     0.0524
     122 H         2.669389   4.386644   0.271395 H        1 UNL1     0.0524
     123 H         2.236995   2.908348   -0.623825 H        1 UNL1     0.0524
@<TRIPOS>BOND
     1     1     2    1
     2     1    42    1
     3     2     3    2
     4     3     4    1
     5     4     5    2
     6     5     7    1
     7     6    75    1
     8     6    76    1
     9     6    77    1
    10     7     9   am
    11     9    10    1
    12    10    11    2
    13    10    43    1
    14    11    14    1
    15    11    15    1
    16    12    13   ar
    17    12    27   ar
    18    12    43    1
    19    13    14    1
    20    13    30   ar
    21    14    17    2
    22    15    16    1
    23    16    17    1
    24    16    18    1
    25    16    22    1
    26    18    19    1
    27    19    20    1
    28    20    21    1
    29    21    22    1
    30    23    24    1
    31    23    88    1
    32    23    89    1
    33    24    25    1
    34    24    26    1
    35    24    90    1
    36    25    91    1
    37    25    92    1
    38    25    93    1
    39    26    94    1
    40    26    95    1
    41    26    96    1
    42    27    28   ar
    43    28    29   ar
    44    29    30   ar
    45    29    31    1
    46    30    33    1
    47    31    32    1
    48    32    33    1
    49    32    35    1
    50    34    97    1
    51    34    98    1
    52    34    99    1
    53    35    61    1
    54    36    37    1
    55    36    60    1
    56    37    38    1
    57    38    39    1
    58    39    40    1
    59    40    41    1
    60    41    42    1
    61    45   100    1
    62    47   101    1
    63    47   102    1
    64    47   103    1
    65    48   104    1
    66    49   105    1
    67    49   106    1
    68    49   107    1
    69    50   108    1
    70    51    59    1
    71    52   109    1
    72    52   110    1
    73    52   111    1
    74    53    54    1
    75    54    55    2
    76    54    56    1
    77    56   112    1
    78    56   113    1
    79    56   114    1
    80    57   115    1
    81    57   116    1
    82    57   117    1
    83    58   118    1
    84    58   119    1
    85    58   120    1
    86    59   121    1
    87    59   122    1
    88    59   123    1
    89    60    61    2
    90     1    47    1
    91     1    62    1
    92     2    63    1
    93     3    64    1
    94     4    65    1
    95     5     6    1
    96     7     8    2
    97     9    78    1
    98    15    79    1
    99    18    80    1
   100    18    81    1
   101    19    82    1
   102    19    83    1
   103    20    23    1
   104    21    84    1
   105    21    85    1
   106    22    86    1
   107    22    87    1
   108    27    45    1
   109    28    34    1
   110    32    58    1
   111    33    46    2
   112    36    51    1
   113    36    66    1
   114    37    52    1
   115    37    67    1
   116    38    53    1
   117    38    68    1
   118    42    48    1
   119    42    72    1
   120    43    44    2
   121    60    73    1
   122    61    74    1
   123    39    69    1
   124    39    57    1
   125    40    70    1
   126    40    50    1
   127    41    71    1
   128    41    49    1
