@<TRIPOS>MOLECULE
*****
 123 128 0 0 0
SMALL
GASTEIGER

@<TRIPOS>ATOM
     1 C         4.325269   2.637214   -2.085403 C.3        1 UNL1     0.0009
     2 C         5.392039   2.892648   -3.57999 C.2        1 UNL1     -0.0787
     3 C         6.619171   2.6397   -4.305394 C.2        1 UNL1     -0.0649
     4 C         7.01745   3.12507   -5.8777 C.2        1 UNL1     -0.0542
     5 C         7.861617   2.881827   -6.989138 C.2        1 UNL1     0.0115
     6 C         9.116276   2.100215   -7.466879 C.3        1 UNL1     -0.0348
     7 C         7.443026   3.46509   -8.424956 C.2        1 UNL1     0.2441
     8 O         7.952075   4.465747   -8.910837 O.2        1 UNL1     -0.2702
     9 N         6.643264   2.606459   -9.199091 N.am        1 UNL1     -0.2772
     10 C         5.311722   2.802569   -8.912986 C.2        1 UNL1     0.1049
     11 C         4.845681   2.171794   -7.85037 C.2        1 UNL1     0.0801
     12 C         3.579528   4.589385   -8.659753 C.ar        1 UNL1     0.0753
     13 C         3.250698   3.983524   -7.405396 C.ar        1 UNL1     0.0305
     14 C         3.784563   2.678281   -7.022799 C.2        1 UNL1     0.0924
     15 N         5.402532   1.197164   -7.111086 N.pl3        1 UNL1     -0.3170
     16 C         4.412874   0.736926   -6.173529 C.3        1 UNL1     0.1275
     17 N         3.513576   1.929535   -5.957495 N.2        1 UNL1     -0.2557
     18 C         3.56401   -0.309413   -6.889284 C.3        1 UNL1     0.0016
     19 C         4.481233   -1.399763   -7.419781 C.3        1 UNL1     0.0026
     20 N         5.204534   -1.987946   -6.300895 N.3        1 UNL1     -0.3018
     21 C         6.002481   -1.046547   -5.512595 C.3        1 UNL1     0.0026
     22 C         5.060469   0.037398   -4.985746 C.3        1 UNL1     0.0016
     23 C         5.875018   -3.224473   -6.650317 C.3        1 UNL1     0.0012
     24 C         4.849959   -4.344746   -6.886955 C.3        1 UNL1     -0.0339
     25 C         5.395654   -5.710326   -6.438108 C.3        1 UNL1     -0.0615
     26 C         3.542092   -4.009368   -6.191408 C.3        1 UNL1     -0.0615
     27 C         2.97358   5.774682   -9.069652 C.ar        1 UNL1     0.1347
     28 C         1.999237   6.422743   -8.331598 C.ar        1 UNL1     0.0342
     29 C         1.727027   5.834473   -7.078201 C.ar        1 UNL1     0.1435
     30 C         2.352388   4.667112   -6.638414 C.ar        1 UNL1     0.0774
     31 O         0.725509   6.284432   -6.291115 O.3        1 UNL1     -0.4436
     32 C         0.455057   5.198479   -5.391984 C.3        1 UNL1     0.3143
     33 C         1.731187   4.381901   -5.361884 C.2        1 UNL1     0.2504
     34 C         1.130195   7.549868   -8.815803 C.3        1 UNL1     -0.0327
     35 O         0.287984   5.75977   -4.084203 O.2        1 UNL1     -0.4528
     36 C         -2.129267   3.464993   -2.267892 C.3        1 UNL1     0.0854
     37 C         -2.013419   1.91737   -1.986882 C.3        1 UNL1     0.0236
     38 C         -2.141488   1.499166   -0.444012 C.3        1 UNL1     0.1131
     39 C         -1.253759   2.228366   0.643405 C.3        1 UNL1     0.0200
     40 C         0.3609   2.529422   0.352408 C.3        1 UNL1     0.0661
     41 C         1.498313   1.399313   -0.201445 C.3        1 UNL1     0.0091
     42 C         2.974478   1.621342   -1.267767 C.3        1 UNL1     0.0661
     43 C         4.521427   3.866521   -9.550007 C.2        1 UNL1     0.2131
     44 O         4.583243   4.046536   -10.752716 O.2        1 UNL1     -0.2851
     45 O         3.383363   6.322466   -10.283509 O.3        1 UNL1     -0.5056
     46 O         2.151476   3.673094   -4.474864 O.2        1 UNL1     -0.2836
     47 C         4.87148   3.458107   -0.886332 C.3        1 UNL1     -0.0566
     48 O         3.87077   0.835075   -0.385973 O.3        1 UNL1     -0.3909
     49 C         0.765063   0.178814   -0.711564 C.3        1 UNL1     -0.0577
     50 O         0.526975   3.756138   -0.32973 O.3        1 UNL1     -0.3910
     51 O         -2.154573   4.29745   -1.130436 O.3        1 UNL1     -0.3753
     52 C         -0.999004   1.224688   -2.954406 C.3        1 UNL1     -0.0564
     53 O         -2.379926   0.031947   -0.237275 O.3        1 UNL1     -0.4608
     54 C         -1.855045   -0.723536   0.77844 C.2        1 UNL1     0.3042
     55 O         -0.909464   -1.508106   0.713896 O.2        1 UNL1     -0.2512
     56 C         -2.512435   -0.483906   2.107774 C.3        1 UNL1     0.0332
     57 C         -2.131345   3.410232   1.268874 C.3        1 UNL1     -0.0567
     58 C         -0.661896   4.354474   -6.048948 C.3        1 UNL1     0.0210
     59 C         -3.42328   4.885008   -0.845788 C.3        1 UNL1     0.0372
     60 C         -1.092206   4.01763   -3.18127 C.2        1 UNL1     -0.0208
     61 C         -0.360042   5.128352   -3.086526 C.2        1 UNL1     0.0882
     62 H         3.549433   3.251706   -2.557831 H        1 UNL1     0.0365
     63 H         4.790827   3.613113   -4.138512 H        1 UNL1     0.0576
     64 H         7.369295   1.937847   -3.934147 H        1 UNL1     0.0615
     65 H         6.259356   3.87517   -6.118792 H        1 UNL1     0.0622
     66 H         -3.08685   3.578846   -2.79526 H        1 UNL1     0.0645
     67 H         -2.944776   1.498363   -2.405888 H        1 UNL1     0.0362
     68 H         -3.172812   1.830412   -0.248641 H        1 UNL1     0.0741
     69 H         -1.223952   1.6169   1.535385 H        1 UNL1     0.0359
     70 H         0.704927   2.73757   1.383611 H        1 UNL1     0.0600
     71 H         1.889592   1.028712   0.766292 H        1 UNL1     0.0348
     72 H         2.731248   2.619276   -0.874978 H        1 UNL1     0.0602
     73 H         -1.068089   3.44056   -4.072144 H        1 UNL1     0.0628
     74 H         -0.284451   5.742359   -2.188462 H        1 UNL1     0.1022
     75 H         9.94873   2.207086   -6.730243 H        1 UNL1     0.0279
     76 H         9.013147   1.020531   -7.548821 H        1 UNL1     0.0279
     77 H         9.56919   2.534217   -8.370324 H        1 UNL1     0.0279
     78 H         6.865216   1.638478   -8.97587 H        1 UNL1     0.1553
     79 H         6.159998   0.620801   -7.428864 H        1 UNL1     0.1484
     80 H         2.826453   -0.713773   -6.185531 H        1 UNL1     0.0317
     81 H         2.998231   0.141542   -7.711589 H        1 UNL1     0.0317
     82 H         5.175349   -1.013401   -8.180596 H        1 UNL1     0.0428
     83 H         3.855729   -2.134324   -7.927931 H        1 UNL1     0.0428
     84 H         6.470963   -1.4982   -4.632625 H        1 UNL1     0.0428
     85 H         6.847809   -0.645048   -6.088387 H        1 UNL1     0.0428
     86 H         5.649161   0.628794   -4.309225 H        1 UNL1     0.0317
     87 H         4.299953   -0.411076   -4.334913 H        1 UNL1     0.0317
     88 H         6.433152   -3.059116   -7.581143 H        1 UNL1     0.0429
     89 H         6.606059   -3.512094   -5.883748 H        1 UNL1     0.0429
     90 H         4.61546   -4.396932   -7.956768 H        1 UNL1     0.0308
     91 H         5.866044   -5.646165   -5.45235 H        1 UNL1     0.0233
     92 H         4.596187   -6.454267   -6.406252 H        1 UNL1     0.0233
     93 H         6.152766   -6.104371   -7.126835 H        1 UNL1     0.0233
     94 H         2.961555   -4.92196   -6.018233 H        1 UNL1     0.0233
     95 H         3.742882   -3.548195   -5.220344 H        1 UNL1     0.0233
     96 H         2.936515   -3.322897   -6.78974 H        1 UNL1     0.0233
     97 H         0.074042   7.304291   -8.756953 H        1 UNL1     0.0280
     98 H         1.260931   8.4602   -8.216254 H        1 UNL1     0.0280
     99 H         1.37377   7.77864   -9.866246 H        1 UNL1     0.0280
     100 H         4.316174   6.392307   -10.386505 H        1 UNL1     0.2922
     101 H         4.245771   4.335896   -0.726238 H        1 UNL1     0.0236
     102 H         5.924065   3.719523   -0.989823 H        1 UNL1     0.0236
     103 H         4.813255   2.89639   0.060915 H        1 UNL1     0.0236
     104 H         3.629908   1.040953   0.538457 H        1 UNL1     0.2098
     105 H         0.292751   0.311505   -1.681681 H        1 UNL1     0.0234
     106 H         1.34861   -0.741633   -0.698237 H        1 UNL1     0.0234
     107 H         0.0   -0.0   0.0 H        1 UNL1     0.0234
     108 H         1.440921   3.775564   -0.673376 H        1 UNL1     0.2098
     109 H         -1.295468   1.323194   -4.008027 H        1 UNL1     0.0234
     110 H         0.028755   1.581738   -2.82803 H        1 UNL1     0.0234
     111 H         -0.931055   0.145227   -2.764423 H        1 UNL1     0.0234
     112 H         -2.034548   -1.099769   2.875681 H        1 UNL1     0.0342
     113 H         -2.499699   0.56853   2.387165 H        1 UNL1     0.0342
     114 H         -3.563309   -0.795488   2.031978 H        1 UNL1     0.0342
     115 H         -1.912265   3.56146   2.334858 H        1 UNL1     0.0234
     116 H         -2.002915   4.371649   0.767643 H        1 UNL1     0.0234
     117 H         -3.211298   3.185568   1.303058 H        1 UNL1     0.0234
     118 H         -1.618738   4.437161   -5.504318 H        1 UNL1     0.0309
     119 H         -0.826348   4.604493   -7.101872 H        1 UNL1     0.0309
     120 H         -0.448037   3.280391   -6.022153 H        1 UNL1     0.0309
     121 H         -3.243256   5.806282   -0.292432 H        1 UNL1     0.0524
     122 H         -3.976284   5.150789   -1.762076 H        1 UNL1     0.0524
     123 H         -4.028389   4.204285   -0.253714 H        1 UNL1     0.0524
@<TRIPOS>BOND
     1     1     2    1
     2     1    42    1
     3     2     3    2
     4     3     4    1
     5     4     5    2
     6     5     7    1
     7     6    75    1
     8     6    76    1
     9     6    77    1
    10     7     9   am
    11     9    10    1
    12    10    11    2
    13    10    43    1
    14    11    14    1
    15    11    15    1
    16    12    13   ar
    17    12    27   ar
    18    12    43    1
    19    13    14    1
    20    13    30   ar
    21    14    17    2
    22    15    16    1
    23    16    17    1
    24    16    18    1
    25    16    22    1
    26    18    19    1
    27    19    20    1
    28    20    21    1
    29    21    22    1
    30    23    24    1
    31    23    88    1
    32    23    89    1
    33    24    25    1
    34    24    26    1
    35    24    90    1
    36    25    91    1
    37    25    92    1
    38    25    93    1
    39    26    94    1
    40    26    95    1
    41    26    96    1
    42    27    28   ar
    43    28    29   ar
    44    29    30   ar
    45    29    31    1
    46    30    33    1
    47    31    32    1
    48    32    33    1
    49    32    35    1
    50    34    97    1
    51    34    98    1
    52    34    99    1
    53    35    61    1
    54    36    37    1
    55    36    60    1
    56    37    38    1
    57    38    39    1
    58    39    40    1
    59    40    41    1
    60    41    42    1
    61    45   100    1
    62    47   101    1
    63    47   102    1
    64    47   103    1
    65    48   104    1
    66    49   105    1
    67    49   106    1
    68    49   107    1
    69    50   108    1
    70    51    59    1
    71    52   109    1
    72    52   110    1
    73    52   111    1
    74    53    54    1
    75    54    55    2
    76    54    56    1
    77    56   112    1
    78    56   113    1
    79    56   114    1
    80    57   115    1
    81    57   116    1
    82    57   117    1
    83    58   118    1
    84    58   119    1
    85    58   120    1
    86    59   121    1
    87    59   122    1
    88    59   123    1
    89    60    61    2
    90     1    47    1
    91     1    62    1
    92     2    63    1
    93     3    64    1
    94     4    65    1
    95     5     6    1
    96     7     8    2
    97     9    78    1
    98    15    79    1
    99    18    80    1
   100    18    81    1
   101    19    82    1
   102    19    83    1
   103    20    23    1
   104    21    84    1
   105    21    85    1
   106    22    86    1
   107    22    87    1
   108    27    45    1
   109    28    34    1
   110    32    58    1
   111    33    46    2
   112    36    51    1
   113    36    66    1
   114    37    52    1
   115    37    67    1
   116    38    53    1
   117    38    68    1
   118    42    48    1
   119    42    72    1
   120    43    44    2
   121    60    73    1
   122    61    74    1
   123    39    69    1
   124    39    57    1
   125    40    70    1
   126    40    50    1
   127    41    71    1
   128    41    49    1
