@<TRIPOS>MOLECULE
*****
 123 128 0 0 0
SMALL
GASTEIGER

@<TRIPOS>ATOM
     1 C         5.063602   2.069787   0.274202 C.3        1 UNL1     0.0009
     2 C         6.505574   2.734753   -0.682655 C.2        1 UNL1     -0.0787
     3 C         7.820557   2.553488   -1.260589 C.2        1 UNL1     -0.0649
     4 C         8.682645   3.629378   -2.243251 C.2        1 UNL1     -0.0542
     5 C         9.733567   3.754074   -3.185106 C.2        1 UNL1     0.0115
     6 C         10.925836   3.007128   -3.843808 C.3        1 UNL1     -0.0348
     7 C         9.798013   5.065952   -4.108043 C.2        1 UNL1     0.2441
     8 O         10.569364   5.991474   -3.896023 O.2        1 UNL1     -0.2702
     9 N         9.096589   4.966883   -5.322267 N.am        1 UNL1     -0.2772
     10 C         7.785922   5.349754   -5.152318 C.2        1 UNL1     0.1049
     11 C         6.966891   4.427877   -4.679504 C.2        1 UNL1     0.0801
     12 C         6.358487   7.165577   -4.191822 C.ar        1 UNL1     0.0753
     13 C         5.624904   6.130681   -3.52891 C.ar        1 UNL1     0.0305
     14 C         5.824702   4.720835   -3.85673 C.2        1 UNL1     0.0924
     15 N         7.150183   3.104948   -4.528542 N.pl3        1 UNL1     -0.3170
     16 C         5.8919   2.529178   -4.134248 C.3        1 UNL1     0.1275
     17 N         5.171805   3.647257   -3.420745 N.2        1 UNL1     -0.2557
     18 C         5.098406   2.26017   -5.409278 C.3        1 UNL1     0.0016
     19 C         5.932937   1.378443   -6.32454 C.3        1 UNL1     0.0026
     20 N         6.239532   0.137528   -5.626573 N.3        1 UNL1     -0.3018
     21 C         6.948933   0.298002   -4.355603 C.3        1 UNL1     0.0026
     22 C         6.090688   1.183084   -3.450097 C.3        1 UNL1     0.0016
     23 C         6.768827   -0.887227   -6.50428 C.3        1 UNL1     0.0012
     24 C         5.672321   -1.408294   -7.446574 C.3        1 UNL1     -0.0339
     25 C         5.723946   -0.704857   -8.812798 C.3        1 UNL1     -0.0615
     26 C         5.782134   -2.916343   -7.589787 C.3        1 UNL1     -0.0615
     27 C         6.077685   8.510295   -3.961598 C.ar        1 UNL1     0.1347
     28 C         5.064028   8.940543   -3.12408 C.ar        1 UNL1     0.0342
     29 C         4.387476   7.905064   -2.444945 C.ar        1 UNL1     0.1435
     30 C         4.681984   6.554815   -2.638108 C.ar        1 UNL1     0.0774
     31 O         3.303371   8.155501   -1.678783 O.3        1 UNL1     -0.4436
     32 C         2.639336   6.887871   -1.564577 C.3        1 UNL1     0.3143
     33 C         3.715831   5.852349   -1.819661 C.2        1 UNL1     0.2504
     34 C         4.542271   10.346723   -3.021477 C.3        1 UNL1     -0.0327
     35 O         2.234362   6.740727   -0.197977 O.2        1 UNL1     -0.4528
     36 C         -0.905984   4.609632   -0.266893 C.3        1 UNL1     0.0854
     37 C         -1.117444   3.166018   -0.865881 C.3        1 UNL1     0.0236
     38 C         -1.703669   2.085986   0.164466 C.3        1 UNL1     0.1131
     39 C         -1.019863   1.897956   1.57844 C.3        1 UNL1     0.0200
     40 C         0.641997   1.848367   1.71335 C.3        1 UNL1     0.0661
     41 C         1.685924   0.885325   0.785785 C.3        1 UNL1     0.0091
     42 C         3.402458   1.1965   0.21826 C.3        1 UNL1     0.0661
     43 C         7.368306   6.758883   -5.200349 C.2        1 UNL1     0.2131
     44 O         7.765517   7.49129   -6.088346 O.2        1 UNL1     -0.2851
     45 O         6.868621   9.455046   -4.612216 O.3        1 UNL1     -0.5056
     46 O         3.773883   4.711325   -1.418976 O.2        1 UNL1     -0.2836
     47 C         5.408079   1.994822   1.786054 C.3        1 UNL1     -0.0566
     48 O         3.902907   -0.13597   0.634421 O.3        1 UNL1     -0.3909
     49 C         0.921623   0.338733   -0.399363 C.3        1 UNL1     -0.0577
     50 O         1.173479   3.151715   1.841938 O.3        1 UNL1     -0.3910
     51 O         -1.088351   4.731579   1.125696 O.3        1 UNL1     -0.3753
     52 C         -0.013794   2.80289   -1.912324 C.3        1 UNL1     -0.0564
     53 O         -2.220634   0.842641   -0.498231 O.3        1 UNL1     -0.4608
     54 C         -2.418282   -0.364357   0.119848 C.2        1 UNL1     0.3042
     55 O         -1.789373   -1.406692   -0.058617 O.2        1 UNL1     -0.2512
     56 C         -3.500553   -0.336622   1.161306 C.3        1 UNL1     0.0332
     57 C         -1.82629   2.796505   2.627468 C.3        1 UNL1     -0.0567
     58 C         1.607913   6.829132   -2.715336 C.3        1 UNL1     0.0210
     59 C         -1.483438   6.029639   1.56707 C.3        1 UNL1     0.0372
     60 C         0.406148   5.236224   -0.584464 C.2        1 UNL1     -0.0208
     61 C         1.258526   5.900662   0.19702 C.2        1 UNL1     0.0882
     62 H         4.544954   3.023421   0.118326 H        1 UNL1     0.0365
     63 H         6.192541   3.770647   -0.828954 H        1 UNL1     0.0576
     64 H         8.326637   1.585735   -1.239521 H        1 UNL1     0.0615
     65 H         8.143282   4.57386   -2.131343 H        1 UNL1     0.0622
     66 H         -1.664412   5.229276   -0.765765 H        1 UNL1     0.0645
     67 H         -1.964682   3.286551   -1.563175 H        1 UNL1     0.0362
     68 H         -2.683156   2.542982   0.372509 H        1 UNL1     0.0741
     69 H         -1.319447   0.941409   1.985473 H        1 UNL1     0.0359
     70 H         0.738182   1.409394   2.72484 H        1 UNL1     0.0600
     71 H         1.750119   -0.010286   1.434412 H        1 UNL1     0.0348
     72 H         3.230629   1.886498   1.057125 H        1 UNL1     0.0602
     73 H         0.565158   5.201085   -1.633621 H        1 UNL1     0.0628
     74 H         1.198629   5.935228   1.285347 H        1 UNL1     0.1022
     75 H         10.989918   1.959015   -3.463827 H        1 UNL1     0.0279
     76 H         10.872802   2.863092   -4.920613 H        1 UNL1     0.0279
     77 H         11.902084   3.409424   -3.535912 H        1 UNL1     0.0279
     78 H         9.094564   3.999259   -5.638143 H        1 UNL1     0.1553
     79 H         7.860682   2.582846   -5.007639 H        1 UNL1     0.1484
     80 H         4.149465   1.77815   -5.144831 H        1 UNL1     0.0317
     81 H         4.843504   3.196875   -5.916486 H        1 UNL1     0.0317
     82 H         6.852258   1.886118   -6.65169 H        1 UNL1     0.0428
     83 H         5.349158   1.20053   -7.228199 H        1 UNL1     0.0428
     84 H         7.096187   -0.641454   -3.8138 H        1 UNL1     0.0428
     85 H         7.967193   0.68415   -4.501728 H        1 UNL1     0.0428
     86 H         6.573007   1.169276   -2.490324 H        1 UNL1     0.0317
     87 H         5.126365   0.697581   -3.256538 H        1 UNL1     0.0317
     88 H         7.566661   -0.438822   -7.110653 H        1 UNL1     0.0429
     89 H         7.221868   -1.707166   -5.932241 H        1 UNL1     0.0429
     90 H         4.69122   -1.221033   -6.994261 H        1 UNL1     0.0308
     91 H         6.702721   -0.826965   -9.286286 H        1 UNL1     0.0233
     92 H         4.951909   -1.09733   -9.47878 H        1 UNL1     0.0233
     93 H         5.540798   0.373637   -8.734421 H        1 UNL1     0.0233
     94 H         5.134032   -3.266964   -8.400259 H        1 UNL1     0.0233
     95 H         6.810665   -3.194331   -7.836383 H        1 UNL1     0.0233
     96 H         5.489778   -3.427061   -6.668016 H        1 UNL1     0.0233
     97 H         3.711345   10.423319   -2.326548 H        1 UNL1     0.0280
     98 H         5.305619   11.045681   -2.655399 H        1 UNL1     0.0280
     99 H         4.196726   10.68533   -4.011951 H        1 UNL1     0.0280
     100 H         6.387633   10.090489   -5.112702 H        1 UNL1     0.2922
     101 H         4.540337   1.643366   2.343871 H        1 UNL1     0.0236
     102 H         5.798151   2.931127   2.183749 H        1 UNL1     0.0236
     103 H         6.195133   1.251154   1.995091 H        1 UNL1     0.0236
     104 H         4.284856   -0.041404   1.528928 H        1 UNL1     0.2098
     105 H         0.700555   1.073965   -1.169021 H        1 UNL1     0.0234
     106 H         1.353104   -0.557183   -0.845553 H        1 UNL1     0.0234
     107 H         0.0   -0.0   0.0 H        1 UNL1     0.0234
     108 H         0.987451   3.624459   1.007867 H        1 UNL1     0.2098
     109 H         0.996513   2.841027   -1.481583 H        1 UNL1     0.0234
     110 H         -0.173682   1.828234   -2.385849 H        1 UNL1     0.0234
     111 H         -0.005274   3.509172   -2.75318 H        1 UNL1     0.0234
     112 H         -3.592436   -1.321655   1.628867 H        1 UNL1     0.0342
     113 H         -3.329665   0.436381   1.90904 H        1 UNL1     0.0342
     114 H         -4.452425   -0.111189   0.661023 H        1 UNL1     0.0342
     115 H         -2.885688   2.510156   2.681024 H        1 UNL1     0.0234
     116 H         -1.425108   2.761979   3.642313 H        1 UNL1     0.0234
     117 H         -1.90673   3.85591   2.328919 H        1 UNL1     0.0234
     118 H         0.668869   7.349387   -2.457388 H        1 UNL1     0.0309
     119 H         1.992663   7.230942   -3.658055 H        1 UNL1     0.0309
     120 H         1.278849   5.807178   -2.933126 H        1 UNL1     0.0309
     121 H         -0.685689   6.724024   1.304805 H        1 UNL1     0.0524
     122 H         -2.403894   6.378401   1.069914 H        1 UNL1     0.0524
     123 H         -1.641694   6.029169   2.641802 H        1 UNL1     0.0524
@<TRIPOS>BOND
     1     1     2    1
     2     1    42    1
     3     2     3    2
     4     3     4    1
     5     4     5    2
     6     5     7    1
     7     6    75    1
     8     6    76    1
     9     6    77    1
    10     7     9   am
    11     9    10    1
    12    10    11    2
    13    10    43    1
    14    11    14    1
    15    11    15    1
    16    12    13   ar
    17    12    27   ar
    18    12    43    1
    19    13    14    1
    20    13    30   ar
    21    14    17    2
    22    15    16    1
    23    16    17    1
    24    16    18    1
    25    16    22    1
    26    18    19    1
    27    19    20    1
    28    20    21    1
    29    21    22    1
    30    23    24    1
    31    23    88    1
    32    23    89    1
    33    24    25    1
    34    24    26    1
    35    24    90    1
    36    25    91    1
    37    25    92    1
    38    25    93    1
    39    26    94    1
    40    26    95    1
    41    26    96    1
    42    27    28   ar
    43    28    29   ar
    44    29    30   ar
    45    29    31    1
    46    30    33    1
    47    31    32    1
    48    32    33    1
    49    32    35    1
    50    34    97    1
    51    34    98    1
    52    34    99    1
    53    35    61    1
    54    36    37    1
    55    36    60    1
    56    37    38    1
    57    38    39    1
    58    39    40    1
    59    40    41    1
    60    41    42    1
    61    45   100    1
    62    47   101    1
    63    47   102    1
    64    47   103    1
    65    48   104    1
    66    49   105    1
    67    49   106    1
    68    49   107    1
    69    50   108    1
    70    51    59    1
    71    52   109    1
    72    52   110    1
    73    52   111    1
    74    53    54    1
    75    54    55    2
    76    54    56    1
    77    56   112    1
    78    56   113    1
    79    56   114    1
    80    57   115    1
    81    57   116    1
    82    57   117    1
    83    58   118    1
    84    58   119    1
    85    58   120    1
    86    59   121    1
    87    59   122    1
    88    59   123    1
    89    60    61    2
    90     1    47    1
    91     1    62    1
    92     2    63    1
    93     3    64    1
    94     4    65    1
    95     5     6    1
    96     7     8    2
    97     9    78    1
    98    15    79    1
    99    18    80    1
   100    18    81    1
   101    19    82    1
   102    19    83    1
   103    20    23    1
   104    21    84    1
   105    21    85    1
   106    22    86    1
   107    22    87    1
   108    27    45    1
   109    28    34    1
   110    32    58    1
   111    33    46    2
   112    36    51    1
   113    36    66    1
   114    37    52    1
   115    37    67    1
   116    38    53    1
   117    38    68    1
   118    42    48    1
   119    42    72    1
   120    43    44    2
   121    60    73    1
   122    61    74    1
   123    39    69    1
   124    39    57    1
   125    40    70    1
   126    40    50    1
   127    41    71    1
   128    41    49    1
