@<TRIPOS>MOLECULE
*****
 123 128 0 0 0
SMALL
GASTEIGER

@<TRIPOS>ATOM
     1 C         3.305413   4.188718   -1.236185 C.3        1 UNL1     0.0009
     2 C         3.474117   5.797239   -2.142406 C.2        1 UNL1     -0.0787
     3 C         3.943509   6.551747   -3.2854 C.2        1 UNL1     -0.0649
     4 C         3.656968   8.181007   -3.645624 C.2        1 UNL1     -0.0542
     5 C         3.644541   9.158616   -4.670907 C.2        1 UNL1     0.0115
     6 C         4.043483   9.437503   -6.146167 C.3        1 UNL1     -0.0348
     7 C         2.843092   10.528282   -4.428662 C.2        1 UNL1     0.2441
     8 O         3.396026   11.580724   -4.140295 O.2        1 UNL1     -0.2702
     9 N         1.494455   10.499406   -4.824257 N.am        1 UNL1     -0.2772
     10 C         0.701933   10.044268   -3.795627 C.2        1 UNL1     0.1049
     11 C         0.621884   8.73312   -3.658865 C.2        1 UNL1     0.0801
     12 C         0.236071   10.365548   -1.359013 C.ar        1 UNL1     0.0753
     13 C         0.367023   8.946381   -1.227013 C.ar        1 UNL1     0.0305
     14 C         0.43381   8.072132   -2.395893 C.2        1 UNL1     0.0924
     15 N         1.019921   7.752317   -4.487188 N.pl3        1 UNL1     -0.3170
     16 C         0.5472   6.504239   -3.949517 C.3        1 UNL1     0.1275
     17 N         0.455816   6.743961   -2.462269 N.2        1 UNL1     -0.2557
     18 C         -0.886195   6.315886   -4.436964 C.3        1 UNL1     0.0016
     19 C         -0.897106   6.389564   -5.95553 C.3        1 UNL1     0.0026
     20 N         -0.024088   5.348822   -6.480626 N.3        1 UNL1     -0.3018
     21 C         1.364028   5.409945   -6.018278 C.3        1 UNL1     0.0026
     22 C         1.351583   5.32969   -4.490764 C.3        1 UNL1     0.0016
     23 C         -0.192091   5.137183   -7.904574 C.3        1 UNL1     0.0012
     24 C         -1.549835   4.478301   -8.194682 C.3        1 UNL1     -0.0339
     25 C         -2.615167   5.52404   -8.562855 C.3        1 UNL1     -0.0615
     26 C         -1.397646   3.428689   -9.28185 C.3        1 UNL1     -0.0615
     27 C         0.051668   11.180129   -0.244306 C.ar        1 UNL1     0.1347
     28 C         -0.057336   10.688487   1.044282 C.ar        1 UNL1     0.0342
     29 C         0.123511   9.29344   1.15519 C.ar        1 UNL1     0.1435
     30 C         0.345031   8.469032   0.051333 C.ar        1 UNL1     0.0774
     31 O         -0.062445   8.649746   2.328257 O.3        1 UNL1     -0.4436
     32 C         -0.260902   7.276267   1.960773 C.3        1 UNL1     0.3143
     33 C         0.394811   7.130902   0.60242 C.2        1 UNL1     0.2504
     34 C         -0.50347   11.467293   2.250319 C.3        1 UNL1     -0.0327
     35 O         0.496338   6.476395   2.877313 O.2        1 UNL1     -0.4528
     36 C         -1.373311   3.1867   3.178003 C.3        1 UNL1     0.0854
     37 C         -1.775279   2.162287   2.04817 C.3        1 UNL1     0.0236
     38 C         -1.269929   0.65929   2.287682 C.3        1 UNL1     0.1131
     39 C         0.250124   0.387332   2.630826 C.3        1 UNL1     0.0200
     40 C         1.459005   1.181449   1.79991 C.3        1 UNL1     0.0661
     41 C         1.588172   1.307097   0.113156 C.3        1 UNL1     0.0091
     42 C         2.270371   2.652221   -0.931186 C.3        1 UNL1     0.0661
     43 C         0.213488   10.932429   -2.730289 C.2        1 UNL1     0.2131
     44 O         -0.269001   12.016805   -3.002449 O.2        1 UNL1     -0.2851
     45 O         -0.020899   12.555503   -0.455299 O.3        1 UNL1     -0.5056
     46 O         0.871159   6.13871   0.09794 O.2        1 UNL1     -0.2836
     47 C         4.658274   3.791141   -0.586815 C.3        1 UNL1     -0.0566
     48 O         3.075697   1.740285   -1.779088 O.3        1 UNL1     -0.3909
     49 C         0.275067   0.88796   -0.509397 C.3        1 UNL1     -0.0577
     50 O         1.744046   2.42872   2.400566 O.3        1 UNL1     -0.3910
     51 O         -0.482701   2.704246   4.158556 O.3        1 UNL1     -0.3753
     52 C         -1.768966   2.825665   0.632247 C.3        1 UNL1     -0.0564
     53 O         -1.946667   -0.349481   1.406358 O.3        1 UNL1     -0.4608
     54 C         -1.464899   -1.598053   1.111573 C.2        1 UNL1     0.3042
     55 O         -1.054958   -2.002933   0.02444 O.2        1 UNL1     -0.2512
     56 C         -1.402443   -2.514634   2.30014 C.3        1 UNL1     0.0332
     57 C         0.37623   0.295405   4.222624 C.3        1 UNL1     -0.0567
     58 C         -1.786838   7.082192   1.801457 C.3        1 UNL1     0.0210
     59 C         -0.602973   3.327725   5.436317 C.3        1 UNL1     0.0372
     60 C         -0.814607   4.476193   2.687881 C.2        1 UNL1     -0.0208
     61 C         0.244608   5.172578   3.102437 C.2        1 UNL1     0.0882
     62 H         2.7272   4.707499   -0.462075 H        1 UNL1     0.0365
     63 H         3.0292   6.485262   -1.420503 H        1 UNL1     0.0576
     64 H         4.415734   6.061888   -4.139888 H        1 UNL1     0.0615
     65 H         3.263607   8.589333   -2.710734 H        1 UNL1     0.0622
     66 H         -2.321956   3.43805   3.672918 H        1 UNL1     0.0645
     67 H         -2.866929   2.048163   2.165794 H        1 UNL1     0.0362
     68 H         -1.823757   0.42367   3.209246 H        1 UNL1     0.0741
     69 H         0.470724   -0.653213   2.433316 H        1 UNL1     0.0359
     70 H         2.323487   0.542965   2.06462 H        1 UNL1     0.0600
     71 H         2.220813   0.422868   -0.098652 H        1 UNL1     0.0348
     72 H         2.688796   2.806823   0.073968 H        1 UNL1     0.0602
     73 H         -1.478307   4.895089   1.972845 H        1 UNL1     0.0628
     74 H         1.003058   4.792152   3.787468 H        1 UNL1     0.1022
     75 H         4.522985   8.536664   -6.599599 H        1 UNL1     0.0279
     76 H         3.229897   9.64315   -6.838161 H        1 UNL1     0.0279
     77 H         4.849643   10.180347   -6.23555 H        1 UNL1     0.0279
     78 H         1.380902   9.857129   -5.605707 H        1 UNL1     0.1553
     79 H         1.203433   7.888698   -5.464254 H        1 UNL1     0.1484
     80 H         -1.261006   5.348937   -4.080182 H        1 UNL1     0.0317
     81 H         -1.54628   7.082294   -4.016776 H        1 UNL1     0.0317
     82 H         -0.591394   7.382369   -6.317178 H        1 UNL1     0.0428
     83 H         -1.9288   6.254629   -6.281797 H        1 UNL1     0.0428
     84 H         1.978505   4.572522   -6.363173 H        1 UNL1     0.0428
     85 H         1.884066   6.298404   -6.402358 H        1 UNL1     0.0428
     86 H         2.381221   5.242947   -4.196978 H        1 UNL1     0.0317
     87 H         0.914724   4.376366   -4.16917 H        1 UNL1     0.0317
     88 H         -0.165532   6.11612   -8.400833 H        1 UNL1     0.0429
     89 H         0.632765   4.543749   -8.319569 H        1 UNL1     0.0429
     90 H         -1.885011   3.937923   -7.301451 H        1 UNL1     0.0308
     91 H         -2.30799   6.116498   -9.429883 H        1 UNL1     0.0233
     92 H         -3.571477   5.041822   -8.778602 H        1 UNL1     0.0233
     93 H         -2.806409   6.230746   -7.746259 H        1 UNL1     0.0233
     94 H         -2.382812   3.093989   -9.624281 H        1 UNL1     0.0233
     95 H         -0.868882   3.85333   -10.139784 H        1 UNL1     0.0233
     96 H         -0.843014   2.557961   -8.921039 H        1 UNL1     0.0233
     97 H         -0.543375   10.849436   3.142446 H        1 UNL1     0.0280
     98 H         0.181087   12.292412   2.486577 H        1 UNL1     0.0280
     99 H         -1.509415   11.880893   2.071143 H        1 UNL1     0.0280
     100 H         -0.789164   12.966216   -0.099341 H        1 UNL1     0.2922
     101 H         4.537406   2.867144   -0.02177 H        1 UNL1     0.0236
     102 H         5.093669   4.586179   0.01761 H        1 UNL1     0.0236
     103 H         5.427673   3.558789   -1.341951 H        1 UNL1     0.0236
     104 H         3.977153   1.707268   -1.403246 H        1 UNL1     0.2098
     105 H         -0.530953   1.606624   -0.384235 H        1 UNL1     0.0234
     106 H         0.344255   0.575567   -1.551294 H        1 UNL1     0.0234
     107 H         0.0   -0.0   0.0 H        1 UNL1     0.0234
     108 H         0.944358   2.982422   2.31292 H        1 UNL1     0.2098
     109 H         -0.782228   3.230115   0.366766 H        1 UNL1     0.0234
     110 H         -2.114317   2.152638   -0.159909 H        1 UNL1     0.0234
     111 H         -2.462342   3.675661   0.580445 H        1 UNL1     0.0234
     112 H         -1.003058   -3.487855   1.999011 H        1 UNL1     0.0342
     113 H         -0.819952   -2.088641   3.115663 H        1 UNL1     0.0342
     114 H         -2.426085   -2.669843   2.66788 H        1 UNL1     0.0342
     115 H         -0.251828   -0.505499   4.636488 H        1 UNL1     0.0234
     116 H         1.395199   0.130676   4.578455 H        1 UNL1     0.0234
     117 H         -0.029483   1.177232   4.747714 H        1 UNL1     0.0234
     118 H         -2.285126   6.901334   2.769964 H        1 UNL1     0.0309
     119 H         -2.276478   7.921861   1.298056 H        1 UNL1     0.0309
     120 H         -2.038417   6.190099   1.217518 H        1 UNL1     0.0309
     121 H         -0.370273   4.384795   5.310584 H        1 UNL1     0.0524
     122 H         -1.626586   3.258957   5.8407 H        1 UNL1     0.0524
     123 H         0.086351   2.873588   6.142494 H        1 UNL1     0.0524
@<TRIPOS>BOND
     1     1     2    1
     2     1    42    1
     3     2     3    2
     4     3     4    1
     5     4     5    2
     6     5     7    1
     7     6    75    1
     8     6    76    1
     9     6    77    1
    10     7     9   am
    11     9    10    1
    12    10    11    2
    13    10    43    1
    14    11    14    1
    15    11    15    1
    16    12    13   ar
    17    12    27   ar
    18    12    43    1
    19    13    14    1
    20    13    30   ar
    21    14    17    2
    22    15    16    1
    23    16    17    1
    24    16    18    1
    25    16    22    1
    26    18    19    1
    27    19    20    1
    28    20    21    1
    29    21    22    1
    30    23    24    1
    31    23    88    1
    32    23    89    1
    33    24    25    1
    34    24    26    1
    35    24    90    1
    36    25    91    1
    37    25    92    1
    38    25    93    1
    39    26    94    1
    40    26    95    1
    41    26    96    1
    42    27    28   ar
    43    28    29   ar
    44    29    30   ar
    45    29    31    1
    46    30    33    1
    47    31    32    1
    48    32    33    1
    49    32    35    1
    50    34    97    1
    51    34    98    1
    52    34    99    1
    53    35    61    1
    54    36    37    1
    55    36    60    1
    56    37    38    1
    57    38    39    1
    58    39    40    1
    59    40    41    1
    60    41    42    1
    61    45   100    1
    62    47   101    1
    63    47   102    1
    64    47   103    1
    65    48   104    1
    66    49   105    1
    67    49   106    1
    68    49   107    1
    69    50   108    1
    70    51    59    1
    71    52   109    1
    72    52   110    1
    73    52   111    1
    74    53    54    1
    75    54    55    2
    76    54    56    1
    77    56   112    1
    78    56   113    1
    79    56   114    1
    80    57   115    1
    81    57   116    1
    82    57   117    1
    83    58   118    1
    84    58   119    1
    85    58   120    1
    86    59   121    1
    87    59   122    1
    88    59   123    1
    89    60    61    2
    90     1    47    1
    91     1    62    1
    92     2    63    1
    93     3    64    1
    94     4    65    1
    95     5     6    1
    96     7     8    2
    97     9    78    1
    98    15    79    1
    99    18    80    1
   100    18    81    1
   101    19    82    1
   102    19    83    1
   103    20    23    1
   104    21    84    1
   105    21    85    1
   106    22    86    1
   107    22    87    1
   108    27    45    1
   109    28    34    1
   110    32    58    1
   111    33    46    2
   112    36    51    1
   113    36    66    1
   114    37    52    1
   115    37    67    1
   116    38    53    1
   117    38    68    1
   118    42    48    1
   119    42    72    1
   120    43    44    2
   121    60    73    1
   122    61    74    1
   123    39    69    1
   124    39    57    1
   125    40    70    1
   126    40    50    1
   127    41    71    1
   128    41    49    1
