@<TRIPOS>MOLECULE
*****
 123 128 0 0 0
SMALL
GASTEIGER

@<TRIPOS>ATOM
     1 C         5.167182   1.748818   0.491059 C.3        1 UNL1     0.0009
     2 C         6.603656   2.555396   -0.359241 C.2        1 UNL1     -0.0787
     3 C         7.885404   2.457584   -1.025276 C.2        1 UNL1     -0.0649
     4 C         8.762637   3.693105   -1.780463 C.2        1 UNL1     -0.0542
     5 C         9.782457   3.98624   -2.719141 C.2        1 UNL1     0.0115
     6 C         10.910509   3.361257   -3.585291 C.3        1 UNL1     -0.0348
     7 C         9.877598   5.469785   -3.324973 C.2        1 UNL1     0.2441
     8 O         10.701518   6.291296   -2.947084 O.2        1 UNL1     -0.2702
     9 N         9.127128   5.677261   -4.4954 N.am        1 UNL1     -0.2772
     10 C         7.844458   6.063732   -4.181203 C.2        1 UNL1     0.1049
     11 C         6.998779   5.092141   -3.889551 C.2        1 UNL1     0.0801
     12 C         6.546274   7.66966   -2.76945 C.ar        1 UNL1     0.0753
     13 C         5.787363   6.541498   -2.322333 C.ar        1 UNL1     0.0305
     14 C         5.904227   5.236105   -2.968352 C.2        1 UNL1     0.0924
     15 N         7.121433   3.763243   -4.049285 N.pl3        1 UNL1     -0.3170
     16 C         5.851667   3.163864   -3.73513 C.3        1 UNL1     0.1275
     17 N         5.21542   4.118609   -2.754633 N.2        1 UNL1     -0.2557
     18 C         4.998558   3.223482   -4.998598 C.3        1 UNL1     0.0016
     19 C         5.753243   2.539954   -6.127682 C.3        1 UNL1     0.0026
     20 N         6.023531   1.161686   -5.742522 N.3        1 UNL1     -0.3018
     21 C         6.787149   1.000751   -4.503426 C.3        1 UNL1     0.0026
     22 C         6.008599   1.69071   -3.381949 C.3        1 UNL1     0.0016
     23 C         6.467852   0.342688   -6.852686 C.3        1 UNL1     0.0012
     24 C         5.312219   0.093613   -7.834638 C.3        1 UNL1     -0.0339
     25 C         5.347638   1.08631   -9.008246 C.3        1 UNL1     -0.0615
     26 C         5.341292   -1.345658   -8.318822 C.3        1 UNL1     -0.0615
     27 C         6.341661   8.937092   -2.229202 C.ar        1 UNL1     0.1347
     28 C         5.382786   9.206146   -1.26888 C.ar        1 UNL1     0.0342
     29 C         4.681375   8.071448   -0.808831 C.ar        1 UNL1     0.1435
     30 C         4.900777   6.789666   -1.314914 C.ar        1 UNL1     0.0774
     31 O         3.640554   8.184566   0.044927 O.3        1 UNL1     -0.4436
     32 C         2.918907   6.951777   -0.097656 C.3        1 UNL1     0.3143
     33 C         3.932143   5.958968   -0.630476 C.2        1 UNL1     0.2504
     34 C         4.935972   10.572024   -0.827479 C.3        1 UNL1     -0.0327
     35 O         2.558567   6.514451   1.218456 O.2        1 UNL1     -0.4528
     36 C         -0.684468   4.582288   0.82151 C.3        1 UNL1     0.0854
     37 C         -0.9899   3.322103   -0.076357 C.3        1 UNL1     0.0236
     38 C         -1.590228   2.060667   0.711126 C.3        1 UNL1     0.1131
     39 C         -0.864169   1.52917   2.012133 C.3        1 UNL1     0.0200
     40 C         0.797039   1.383688   2.052883 C.3        1 UNL1     0.0661
     41 C         1.756198   0.615441   0.883516 C.3        1 UNL1     0.0091
     42 C         3.463648   0.97834   0.319315 C.3        1 UNL1     0.0661
     43 C         7.496088   7.462518   -3.890701 C.2        1 UNL1     0.2131
     44 O         7.895775   8.360944   -4.608906 O.2        1 UNL1     -0.2851
     45 O         7.15378   9.972449   -2.687392 O.3        1 UNL1     -0.5056
     46 O         3.948218   4.755375   -0.500251 O.2        1 UNL1     -0.2836
     47 C         5.563872   1.318706   1.928982 C.3        1 UNL1     -0.0566
     48 O         3.912297   -0.432781   0.400363 O.3        1 UNL1     -0.3909
     49 C         0.921757   0.383374   -0.356382 C.3        1 UNL1     -0.0577
     50 O         1.397263   2.6014   2.446113 O.3        1 UNL1     -0.3910
     51 O         -0.808249   4.391977   2.212873 O.3        1 UNL1     -0.3753
     52 C         0.054315   3.162204   -1.229178 C.3        1 UNL1     -0.0564
     53 O         -2.192975   1.022062   -0.189053 O.3        1 UNL1     -0.4608
     54 C         -2.42725   -0.284854   0.150085 C.2        1 UNL1     0.3042
     55 O         -1.858263   -1.283766   -0.288399 O.2        1 UNL1     -0.2512
     56 C         -3.466936   -0.451025   1.221604 C.3        1 UNL1     0.0332
     57 C         -1.584957   2.19756   3.273837 C.3        1 UNL1     -0.0567
     58 C         1.843467   7.197306   -1.181479 C.3        1 UNL1     0.0210
     59 C         -1.121341   5.570634   2.953553 C.3        1 UNL1     0.0372
     60 C         0.644449   5.211538   0.59089 C.2        1 UNL1     -0.0208
     61 C         1.557553   5.646422   1.460293 C.2        1 UNL1     0.0882
     62 H         4.691235   2.732929   0.578872 H        1 UNL1     0.0365
     63 H         6.337383   3.609136   -0.253405 H        1 UNL1     0.0576
     64 H         8.343054   1.490855   -1.246857 H        1 UNL1     0.0615
     65 H         8.275588   4.608324   -1.433128 H        1 UNL1     0.0622
     66 H         -1.42922   5.328921   0.511785 H        1 UNL1     0.0645
     67 H         -1.855596   3.631702   -0.687322 H        1 UNL1     0.0362
     68 H         -2.537241   2.497342   1.063267 H        1 UNL1     0.0741
     69 H         -1.195603   0.51797   2.207156 H        1 UNL1     0.0359
     70 H         0.909038   0.722968   2.933773 H        1 UNL1     0.0600
     71 H         1.799921   -0.405913   1.309992 H        1 UNL1     0.0348
     72 H         3.35796   1.466103   1.29923 H        1 UNL1     0.0602
     73 H         0.762107   5.409255   -0.445601 H        1 UNL1     0.0628
     74 H         1.540253   5.435281   2.53004 H        1 UNL1     0.1022
     75 H         10.955074   2.255912   -3.432776 H        1 UNL1     0.0279
     76 H         10.796634   3.444521   -4.663794 H        1 UNL1     0.0279
     77 H         11.915643   3.665861   -3.258758 H        1 UNL1     0.0279
     78 H         9.06505   4.807543   -5.02058 H        1 UNL1     0.1553
     79 H         7.786585   3.335557   -4.667014 H        1 UNL1     0.1484
     80 H         4.037342   2.732419   -4.804468 H        1 UNL1     0.0317
     81 H         4.771844   4.260345   -5.269091 H        1 UNL1     0.0317
     82 H         6.683827   3.071407   -6.37564 H        1 UNL1     0.0428
     83 H         5.127889   2.595465   -7.019255 H        1 UNL1     0.0428
     84 H         6.907584   -0.042332   -4.194746 H        1 UNL1     0.0428
     85 H         7.817202   1.368876   -4.607311 H        1 UNL1     0.0428
     86 H         6.525235   1.439967   -2.474093 H        1 UNL1     0.0317
     87 H         5.029203   1.212974   -3.256853 H        1 UNL1     0.0317
     88 H         7.263774   0.884753   -7.379913 H        1 UNL1     0.0429
     89 H         6.900567   -0.603221   -6.502274 H        1 UNL1     0.0429
     90 H         4.359299   0.212412   -7.305447 H        1 UNL1     0.0308
     91 H         6.300691   1.035811   -9.543262 H        1 UNL1     0.0233
     92 H         4.5326   0.886608   -9.707846 H        1 UNL1     0.0233
     93 H         5.221535   2.125269   -8.680379 H        1 UNL1     0.0233
     94 H         4.646623   -1.476787   -9.155528 H        1 UNL1     0.0233
     95 H         6.344732   -1.601359   -8.670516 H        1 UNL1     0.0233
     96 H         5.05857   -2.040243   -7.52284 H        1 UNL1     0.0233
     97 H         4.136506   10.522021   -0.094278 H        1 UNL1     0.0280
     98 H         5.746382   11.138411   -0.350302 H        1 UNL1     0.0280
     99 H         4.570882   11.140301   -1.698607 H        1 UNL1     0.0280
     100 H         6.686656   10.723703   -3.008381 H        1 UNL1     0.2922
     101 H         4.701192   0.884805   2.434125 H        1 UNL1     0.0236
     102 H         6.014745   2.123818   2.508198 H        1 UNL1     0.0236
     103 H         6.320158   0.516071   1.927361 H        1 UNL1     0.0236
     104 H         4.331716   -0.559225   1.273902 H        1 UNL1     0.2098
     105 H         0.708939   1.282446   -0.929261 H        1 UNL1     0.0234
     106 H         1.291035   -0.404344   -1.012935 H        1 UNL1     0.0234
     107 H         0.0   -0.0   0.0 H        1 UNL1     0.0234
     108 H         1.199126   3.259762   1.752521 H        1 UNL1     0.2098
     109 H         1.079241   3.048611   -0.849263 H        1 UNL1     0.0234
     110 H         -0.178241   2.335389   -1.908912 H        1 UNL1     0.0234
     111 H         0.075318   4.045303   -1.88159 H        1 UNL1     0.0234
     112 H         -3.599203   -1.512876   1.450348 H        1 UNL1     0.0342
     113 H         -3.223544   0.11474   2.119666 H        1 UNL1     0.0342
     114 H         -4.421711   -0.068208   0.835572 H        1 UNL1     0.0342
     115 H         -2.65456   1.949216   3.312074 H        1 UNL1     0.0234
     116 H         -1.148269   1.917403   4.234495 H        1 UNL1     0.0234
     117 H         -1.623619   3.299435   3.225696 H        1 UNL1     0.0234
     118 H         0.942462   7.683989   -0.76876 H        1 UNL1     0.0309
     119 H         2.212617   7.785676   -2.027501 H        1 UNL1     0.0309
     120 H         1.454845   6.265513   -1.606733 H        1 UNL1     0.0309
     121 H         -0.300357   6.273899   2.816587 H        1 UNL1     0.0524
     122 H         -2.041242   6.059788   2.592241 H        1 UNL1     0.0524
     123 H         -1.239064   5.332429   4.006879 H        1 UNL1     0.0524
@<TRIPOS>BOND
     1     1     2    1
     2     1    42    1
     3     2     3    2
     4     3     4    1
     5     4     5    2
     6     5     7    1
     7     6    75    1
     8     6    76    1
     9     6    77    1
    10     7     9   am
    11     9    10    1
    12    10    11    2
    13    10    43    1
    14    11    14    1
    15    11    15    1
    16    12    13   ar
    17    12    27   ar
    18    12    43    1
    19    13    14    1
    20    13    30   ar
    21    14    17    2
    22    15    16    1
    23    16    17    1
    24    16    18    1
    25    16    22    1
    26    18    19    1
    27    19    20    1
    28    20    21    1
    29    21    22    1
    30    23    24    1
    31    23    88    1
    32    23    89    1
    33    24    25    1
    34    24    26    1
    35    24    90    1
    36    25    91    1
    37    25    92    1
    38    25    93    1
    39    26    94    1
    40    26    95    1
    41    26    96    1
    42    27    28   ar
    43    28    29   ar
    44    29    30   ar
    45    29    31    1
    46    30    33    1
    47    31    32    1
    48    32    33    1
    49    32    35    1
    50    34    97    1
    51    34    98    1
    52    34    99    1
    53    35    61    1
    54    36    37    1
    55    36    60    1
    56    37    38    1
    57    38    39    1
    58    39    40    1
    59    40    41    1
    60    41    42    1
    61    45   100    1
    62    47   101    1
    63    47   102    1
    64    47   103    1
    65    48   104    1
    66    49   105    1
    67    49   106    1
    68    49   107    1
    69    50   108    1
    70    51    59    1
    71    52   109    1
    72    52   110    1
    73    52   111    1
    74    53    54    1
    75    54    55    2
    76    54    56    1
    77    56   112    1
    78    56   113    1
    79    56   114    1
    80    57   115    1
    81    57   116    1
    82    57   117    1
    83    58   118    1
    84    58   119    1
    85    58   120    1
    86    59   121    1
    87    59   122    1
    88    59   123    1
    89    60    61    2
    90     1    47    1
    91     1    62    1
    92     2    63    1
    93     3    64    1
    94     4    65    1
    95     5     6    1
    96     7     8    2
    97     9    78    1
    98    15    79    1
    99    18    80    1
   100    18    81    1
   101    19    82    1
   102    19    83    1
   103    20    23    1
   104    21    84    1
   105    21    85    1
   106    22    86    1
   107    22    87    1
   108    27    45    1
   109    28    34    1
   110    32    58    1
   111    33    46    2
   112    36    51    1
   113    36    66    1
   114    37    52    1
   115    37    67    1
   116    38    53    1
   117    38    68    1
   118    42    48    1
   119    42    72    1
   120    43    44    2
   121    60    73    1
   122    61    74    1
   123    39    69    1
   124    39    57    1
   125    40    70    1
   126    40    50    1
   127    41    71    1
   128    41    49    1
