@<TRIPOS>MOLECULE
*****
 123 128 0 0 0
SMALL
GASTEIGER

@<TRIPOS>ATOM
     1 C         5.313004   1.143299   0.508831 C.3        1 UNL1     0.0009
     2 C         6.879225   1.613376   -0.364677 C.2        1 UNL1     -0.0787
     3 C         8.142436   1.240887   -0.966005 C.2        1 UNL1     -0.0649
     4 C         9.224263   2.230962   -1.812031 C.2        1 UNL1     -0.0542
     5 C         10.298258   2.253562   -2.735666 C.2        1 UNL1     0.0115
     6 C         11.328883   1.366139   -3.486409 C.3        1 UNL1     -0.0348
     7 C         10.645375   3.627414   -3.490007 C.2        1 UNL1     0.2441
     8 O         11.582954   4.344493   -3.168653 O.2        1 UNL1     -0.2702
     9 N         9.964018   3.821055   -4.704259 N.am        1 UNL1     -0.2772
     10 C         8.754264   4.438175   -4.482946 C.2        1 UNL1     0.1049
     11 C         7.756364   3.65102   -4.124054 C.2        1 UNL1     0.0801
     12 C         7.702657   6.37515   -3.299905 C.ar        1 UNL1     0.0753
     13 C         6.761641   5.437735   -2.766661 C.ar        1 UNL1     0.0305
     14 C         6.679752   4.06722   -3.266697 C.2        1 UNL1     0.0924
     15 N         7.665802   2.310077   -4.138179 N.pl3        1 UNL1     -0.3170
     16 C         6.309248   1.957835   -3.812693 C.3        1 UNL1     0.1275
     17 N         5.814703   3.103456   -2.963752 N.2        1 UNL1     -0.2557
     18 C         5.504727   2.01242   -5.107865 C.3        1 UNL1     0.0016
     19 C         6.163242   1.097781   -6.128346 C.3        1 UNL1     0.0026
     20 N         6.198489   -0.255   -5.590043 N.3        1 UNL1     -0.3018
     21 C         6.898854   -0.397496   -4.311938 C.3        1 UNL1     0.0026
     22 C         6.217999   0.526399   -3.300627 C.3        1 UNL1     0.0016
     23 C         6.528471   -1.251283   -6.58963 C.3        1 UNL1     0.0012
     24 C         5.369407   -1.420631   -7.584441 C.3        1 UNL1     -0.0339
     25 C         5.582097   -0.568022   -8.846136 C.3        1 UNL1     -0.0615
     26 C         5.186939   -2.889159   -7.926364 C.3        1 UNL1     -0.0615
     27 C         7.694134   7.710678   -2.904417 C.ar        1 UNL1     0.1347
     28 C         6.77077   8.232419   -2.016027 C.ar        1 UNL1     0.0342
     29 C         5.885142   7.280899   -1.466994 C.ar        1 UNL1     0.1435
     30 C         5.905191   5.93271   -1.826444 C.ar        1 UNL1     0.0774
     31 O         4.858016   7.650891   -0.671302 O.3        1 UNL1     -0.4436
     32 C         3.949664   6.539969   -0.711565 C.3        1 UNL1     0.3143
     33 C         4.800238   5.346543   -1.096888 C.2        1 UNL1     0.2504
     34 C         6.541376   9.692047   -1.738604 C.3        1 UNL1     -0.0327
     35 O         3.494753   6.312919   0.62812 O.2        1 UNL1     -0.4528
     36 C         -0.008789   4.887428   0.309908 C.3        1 UNL1     0.0854
     37 C         -0.494512   3.600475   -0.46168 C.3        1 UNL1     0.0236
     38 C         -1.308046   2.544637   0.43001 C.3        1 UNL1     0.1131
     39 C         -0.706048   2.051319   1.807146 C.3        1 UNL1     0.0200
     40 C         0.908438   1.649741   1.928013 C.3        1 UNL1     0.0661
     41 C         1.75585   0.615127   0.884425 C.3        1 UNL1     0.0091
     42 C         3.511388   0.638422   0.352497 C.3        1 UNL1     0.0661
     43 C         8.630603   5.897871   -4.355074 C.2        1 UNL1     0.2131
     44 O         9.185938   6.636957   -5.147595 O.2        1 UNL1     -0.2851
     45 O         8.672868   8.54738   -3.436815 O.3        1 UNL1     -0.5056
     46 O         4.618496   4.177374   -0.840242 O.2        1 UNL1     -0.2836
     47 C         5.60348   0.816744   1.998451 C.3        1 UNL1     -0.0566
     48 O         3.723902   -0.808355   0.599052 O.3        1 UNL1     -0.3909
     49 C         0.922033   0.383149   -0.355909 C.3        1 UNL1     -0.0577
     50 O         1.689103   2.792719   2.214169 O.3        1 UNL1     -0.3910
     51 O         -0.191981   4.873538   1.707649 O.3        1 UNL1     -0.3753
     52 C         0.5349   3.151111   -1.549492 C.3        1 UNL1     -0.0564
     53 O         -2.051186   1.521972   -0.378832 O.3        1 UNL1     -0.4608
     54 C         -2.489673   0.308537   0.082941 C.2        1 UNL1     0.3042
     55 O         -2.076001   -0.8056   -0.235514 O.2        1 UNL1     -0.2512
     56 C         -3.557585   0.415271   1.134077 C.3        1 UNL1     0.0332
     57 C         -1.336456   2.960337   2.962329 C.3        1 UNL1     -0.0567
     58 C         2.951971   6.831995   -1.856493 C.3        1 UNL1     0.0210
     59 C         -0.357714   6.159483   2.303252 C.3        1 UNL1     0.0372
     60 C         1.409138   5.268802   0.066605 C.2        1 UNL1     -0.0208
     61 C         2.361444   5.646515   0.920532 C.2        1 UNL1     0.0882
     62 H         5.000784   2.194019   0.473921 H        1 UNL1     0.0365
     63 H         6.78474   2.701165   -0.38079 H        1 UNL1     0.0576
     64 H         8.442328   0.195392   -1.066563 H        1 UNL1     0.0615
     65 H         8.884295   3.244424   -1.582247 H        1 UNL1     0.0622
     66 H         -0.615986   5.703964   -0.105575 H        1 UNL1     0.0645
     67 H         -1.285196   3.974193   -1.135263 H        1 UNL1     0.0362
     68 H         -2.179349   3.161992   0.696893 H        1 UNL1     0.0741
     69 H         -1.200912   1.133144   2.094329 H        1 UNL1     0.0359
     70 H         0.892847   1.080699   2.877228 H        1 UNL1     0.0600
     71 H         1.624429   -0.346987   1.417361 H        1 UNL1     0.0348
     72 H         3.464727   1.241678   1.270767 H        1 UNL1     0.0602
     73 H         1.579765   5.330009   -0.979525 H        1 UNL1     0.0628
     74 H         2.286932   5.55989   2.005051 H        1 UNL1     0.1022
     75 H         11.190661   0.291309   -3.216833 H        1 UNL1     0.0279
     76 H         11.253477   1.347119   -4.571315 H        1 UNL1     0.0279
     77 H         12.362714   1.54165   -3.154611 H        1 UNL1     0.0279
     78 H         9.773461   2.919695   -5.137059 H        1 UNL1     0.1553
     79 H         8.26626   1.716972   -4.680958 H        1 UNL1     0.1484
     80 H         4.472722   1.704332   -4.900954 H        1 UNL1     0.0317
     81 H         5.454728   3.035936   -5.494603 H        1 UNL1     0.0317
     82 H         7.172734   1.444428   -6.394192 H        1 UNL1     0.0428
     83 H         5.574664   1.153189   -7.044619 H        1 UNL1     0.0428
     84 H         6.842162   -1.406063   -3.890762 H        1 UNL1     0.0428
     85 H         7.976915   -0.211007   -4.413543 H        1 UNL1     0.0428
     86 H         6.667373   0.298456   -2.351894 H        1 UNL1     0.0317
     87 H         5.171717   0.226667   -3.164428 H        1 UNL1     0.0317
     88 H         7.412901   -0.903633   -7.139372 H        1 UNL1     0.0429
     89 H         6.794686   -2.209407   -6.124976 H        1 UNL1     0.0429
     90 H         4.435089   -1.106582   -7.104194 H        1 UNL1     0.0308
     91 H         6.522759   -0.822003   -9.343882 H        1 UNL1     0.0233
     92 H         4.756437   -0.704691   -9.54843 H        1 UNL1     0.0233
     93 H         5.619676   0.505219   -8.623476 H        1 UNL1     0.0233
     94 H         4.497091   -2.997584   -8.770278 H        1 UNL1     0.0233
     95 H         6.146045   -3.327198   -8.216534 H        1 UNL1     0.0233
     96 H         4.785299   -3.449605   -7.077509 H        1 UNL1     0.0233
     97 H         5.734633   9.850067   -1.029079 H        1 UNL1     0.0280
     98 H         7.425315   10.173994   -1.300842 H        1 UNL1     0.0280
     99 H         6.28283   10.209828   -2.676768 H        1 UNL1     0.0280
     100 H         8.340461   9.322237   -3.854816 H        1 UNL1     0.2922
     101 H         4.671171   0.583374   2.512254 H        1 UNL1     0.0236
     102 H         6.165984   1.599035   2.506972 H        1 UNL1     0.0236
     103 H         6.219768   -0.090856   2.110899 H        1 UNL1     0.0236
     104 H         4.098554   -0.902681   1.496665 H        1 UNL1     0.2098
     105 H         0.709721   1.282225   -0.928969 H        1 UNL1     0.0234
     106 H         1.291498   -0.404696   -1.012204 H        1 UNL1     0.0234
     107 H         0.0   -0.0   0.0 H        1 UNL1     0.0234
     108 H         1.614686   3.39404   1.448243 H        1 UNL1     0.2098
     109 H         1.519422   2.919031   -1.119881 H        1 UNL1     0.0234
     110 H         0.186458   2.301851   -2.147061 H        1 UNL1     0.0234
     111 H         0.712722   3.94243   -2.289857 H        1 UNL1     0.0234
     112 H         -3.858171   -0.584434   1.462076 H        1 UNL1     0.0342
     113 H         -3.24108   1.024978   1.979019 H        1 UNL1     0.0342
     114 H         -4.434851   0.899973   0.68393 H        1 UNL1     0.0342
     115 H         -2.430894   2.871292   3.0006 H        1 UNL1     0.0234
     116 H         -0.953844   2.738312   3.960508 H        1 UNL1     0.0234
     117 H         -1.216821   4.042974   2.784775 H        1 UNL1     0.0234
     118 H         2.132834   7.497795   -1.532872 H        1 UNL1     0.0309
     119 H         3.429787   7.257619   -2.744602 H        1 UNL1     0.0309
     120 H         2.427034   5.932492   -2.19626 H        1 UNL1     0.0309
     121 H         0.555556   6.726125   2.123779 H        1 UNL1     0.0524
     122 H         -1.192142   6.723901   1.854698 H        1 UNL1     0.0524
     123 H         -0.53316   6.059522   3.370642 H        1 UNL1     0.0524
@<TRIPOS>BOND
     1     1     2    1
     2     1    42    1
     3     2     3    2
     4     3     4    1
     5     4     5    2
     6     5     7    1
     7     6    75    1
     8     6    76    1
     9     6    77    1
    10     7     9   am
    11     9    10    1
    12    10    11    2
    13    10    43    1
    14    11    14    1
    15    11    15    1
    16    12    13   ar
    17    12    27   ar
    18    12    43    1
    19    13    14    1
    20    13    30   ar
    21    14    17    2
    22    15    16    1
    23    16    17    1
    24    16    18    1
    25    16    22    1
    26    18    19    1
    27    19    20    1
    28    20    21    1
    29    21    22    1
    30    23    24    1
    31    23    88    1
    32    23    89    1
    33    24    25    1
    34    24    26    1
    35    24    90    1
    36    25    91    1
    37    25    92    1
    38    25    93    1
    39    26    94    1
    40    26    95    1
    41    26    96    1
    42    27    28   ar
    43    28    29   ar
    44    29    30   ar
    45    29    31    1
    46    30    33    1
    47    31    32    1
    48    32    33    1
    49    32    35    1
    50    34    97    1
    51    34    98    1
    52    34    99    1
    53    35    61    1
    54    36    37    1
    55    36    60    1
    56    37    38    1
    57    38    39    1
    58    39    40    1
    59    40    41    1
    60    41    42    1
    61    45   100    1
    62    47   101    1
    63    47   102    1
    64    47   103    1
    65    48   104    1
    66    49   105    1
    67    49   106    1
    68    49   107    1
    69    50   108    1
    70    51    59    1
    71    52   109    1
    72    52   110    1
    73    52   111    1
    74    53    54    1
    75    54    55    2
    76    54    56    1
    77    56   112    1
    78    56   113    1
    79    56   114    1
    80    57   115    1
    81    57   116    1
    82    57   117    1
    83    58   118    1
    84    58   119    1
    85    58   120    1
    86    59   121    1
    87    59   122    1
    88    59   123    1
    89    60    61    2
    90     1    47    1
    91     1    62    1
    92     2    63    1
    93     3    64    1
    94     4    65    1
    95     5     6    1
    96     7     8    2
    97     9    78    1
    98    15    79    1
    99    18    80    1
   100    18    81    1
   101    19    82    1
   102    19    83    1
   103    20    23    1
   104    21    84    1
   105    21    85    1
   106    22    86    1
   107    22    87    1
   108    27    45    1
   109    28    34    1
   110    32    58    1
   111    33    46    2
   112    36    51    1
   113    36    66    1
   114    37    52    1
   115    37    67    1
   116    38    53    1
   117    38    68    1
   118    42    48    1
   119    42    72    1
   120    43    44    2
   121    60    73    1
   122    61    74    1
   123    39    69    1
   124    39    57    1
   125    40    70    1
   126    40    50    1
   127    41    71    1
   128    41    49    1
