@<TRIPOS>MOLECULE
*****
 123 128 0 0 0
SMALL
GASTEIGER

@<TRIPOS>ATOM
     1 C         3.748791   -0.157923   -2.339846 C.3        1 UNL1     0.0009
     2 C         4.491273   -1.584035   -3.262864 C.2        1 UNL1     -0.0787
     3 C         5.524698   -2.588271   -3.40282 C.2        1 UNL1     -0.0649
     4 C         5.610128   -3.842483   -4.536845 C.2        1 UNL1     -0.0542
     5 C         6.189369   -5.100458   -4.835269 C.2        1 UNL1     0.0115
     6 C         7.273911   -6.121099   -4.393248 C.3        1 UNL1     -0.0348
     7 C         5.510766   -6.020464   -5.962246 C.2        1 UNL1     0.2441
     8 O         5.958401   -6.122756   -7.096126 O.2        1 UNL1     -0.2702
     9 N         4.52317   -6.901105   -5.487614 N.am        1 UNL1     -0.2772
     10 C         3.292963   -6.284763   -5.48156 C.2        1 UNL1     0.1049
     11 C         3.027204   -5.526111   -4.433686 C.2        1 UNL1     0.0801
     12 C         1.747547   -4.927091   -6.904848 C.ar        1 UNL1     0.0753
     13 C         1.657168   -4.018412   -5.802694 C.ar        1 UNL1     0.0305
     14 C         2.19047   -4.357959   -4.485367 C.2        1 UNL1     0.0924
     15 N         3.674769   -5.415057   -3.261143 N.pl3        1 UNL1     -0.3170
     16 C         2.880432   -4.582192   -2.397651 C.3        1 UNL1     0.1275
     17 N         2.109595   -3.688933   -3.338724 N.2        1 UNL1     -0.2557
     18 C         1.847312   -5.482172   -1.726532 C.3        1 UNL1     0.0016
     19 C         2.575226   -6.611022   -1.014192 C.3        1 UNL1     0.0026
     20 N         3.484848   -6.03545   -0.033206 N.3        1 UNL1     -0.3018
     21 C         4.477949   -5.106322   -0.576197 C.3        1 UNL1     0.0026
     22 C         3.724732   -3.978206   -1.283242 C.3        1 UNL1     0.0016
     23 C         4.002067   -7.016415   0.899981 C.3        1 UNL1     0.0012
     24 C         5.225591   -7.732022   0.306137 C.3        1 UNL1     -0.0339
     25 C         5.293391   -9.199748   0.759172 C.3        1 UNL1     -0.0615
     26 C         5.213606   -7.614362   -1.20806 C.3        1 UNL1     -0.0615
     27 C         1.131897   -4.648   -8.122715 C.ar        1 UNL1     0.1347
     28 C         0.368557   -3.515658   -8.344448 C.ar        1 UNL1     0.0342
     29 C         0.334183   -2.612179   -7.26107 C.ar        1 UNL1     0.1435
     30 C         0.975976   -2.86141   -6.047313 C.ar        1 UNL1     0.0774
     31 O         -0.455763   -1.516481   -7.281964 O.3        1 UNL1     -0.4436
     32 C         -0.588438   -1.138713   -5.903355 C.3        1 UNL1     0.3143
     33 C         0.621443   -1.733405   -5.211444 C.2        1 UNL1     0.2504
     34 C         -0.522576   -3.271352   -9.530322 C.3        1 UNL1     -0.0327
     35 O         -0.448863   0.285832   -5.836704 O.2        1 UNL1     -0.4528
     36 C         -2.549098   1.399926   -2.877668 C.3        1 UNL1     0.0854
     37 C         -2.457866   0.954926   -1.367312 C.3        1 UNL1     0.0236
     38 C         -2.282091   2.155282   -0.318507 C.3        1 UNL1     0.1131
     39 C         -1.149828   3.236434   -0.545139 C.3        1 UNL1     0.0200
     40 C         0.381729   2.770403   -1.013738 C.3        1 UNL1     0.0661
     41 C         1.317703   1.55749   -0.285449 C.3        1 UNL1     0.0091
     42 C         2.547774   0.406378   -1.011583 C.3        1 UNL1     0.0661
     43 C         2.44348   -6.218366   -6.680027 C.2        1 UNL1     0.2131
     44 O         2.261725   -7.208988   -7.364404 O.2        1 UNL1     -0.2851
     45 O         1.306768   -5.563253   -9.158655 O.3        1 UNL1     -0.5056
     46 O         1.180402   -1.349355   -4.208486 O.2        1 UNL1     -0.2836
     47 C         4.575687   1.132731   -2.585684 C.3        1 UNL1     -0.0566
     48 O         3.56642   0.652074   0.037754 O.3        1 UNL1     -0.3909
     49 C         0.431404   0.738469   0.626237 C.3        1 UNL1     -0.0577
     50 O         0.465191   2.665698   -2.42079 O.3        1 UNL1     -0.3910
     51 O         -2.292572   2.76203   -3.135152 O.3        1 UNL1     -0.3753
     52 C         -1.705706   -0.406424   -1.206275 C.3        1 UNL1     -0.0564
     53 O         -2.54816   1.75449   1.103076 O.3        1 UNL1     -0.4608
     54 C         -2.093681   2.415751   2.213982 C.2        1 UNL1     0.3042
     55 O         -2.703124   2.619791   3.263165 O.2        1 UNL1     -0.2512
     56 C         -0.666731   2.871508   2.100779 C.3        1 UNL1     0.0332
     57 C         -1.814407   4.479696   -1.300658 C.3        1 UNL1     -0.0567
     58 C         -1.860509   -1.843361   -5.377203 C.3        1 UNL1     0.0210
     59 C         -2.811662   3.246178   -4.372896 C.3        1 UNL1     0.0372
     60 C         -1.698601   0.618107   -3.816058 C.2        1 UNL1     -0.0208
     61 C         -0.905943   1.025612   -4.808215 C.2        1 UNL1     0.0882
     62 H         2.92442   -0.143913   -3.062983 H        1 UNL1     0.0365
     63 H         3.824943   -1.636704   -4.126404 H        1 UNL1     0.0576
     64 H         6.29825   -2.723287   -2.643546 H        1 UNL1     0.0615
     65 H         4.858525   -3.5708   -5.283011 H        1 UNL1     0.0622
     66 H         -3.588525   1.188259   -3.165478 H        1 UNL1     0.0645
     67 H         -3.476794   0.603106   -1.129472 H        1 UNL1     0.0362
     68 H         -3.231063   2.68696   -0.486709 H        1 UNL1     0.0741
     69 H         -0.966066   3.749141   0.389618 H        1 UNL1     0.0359
     70 H         0.944155   3.692291   -0.771128 H        1 UNL1     0.0600
     71 H         1.882837   2.164259   0.448998 H        1 UNL1     0.0348
     72 H         2.444404   1.232443   -1.730086 H        1 UNL1     0.0602
     73 H         -1.891416   -0.417326   -3.682077 H        1 UNL1     0.0628
     74 H         -0.612334   2.062248   -4.976793 H        1 UNL1     0.1022
     75 H         8.2925   -5.753571   -4.666075 H        1 UNL1     0.0279
     76 H         7.367101   -6.29741   -3.323996 H        1 UNL1     0.0279
     77 H         7.225441   -7.064128   -4.957206 H        1 UNL1     0.0279
     78 H         4.736137   -7.169323   -4.529083 H        1 UNL1     0.1553
     79 H         4.317948   -6.102035   -2.912841 H        1 UNL1     0.1484
     80 H         1.253174   -4.883508   -1.025556 H        1 UNL1     0.0317
     81 H         1.146377   -5.889913   -2.462799 H        1 UNL1     0.0317
     82 H         3.114073   -7.258345   -1.721672 H        1 UNL1     0.0428
     83 H         1.819878   -7.24157   -0.544182 H        1 UNL1     0.0428
     84 H         5.095895   -4.627773   0.189926 H        1 UNL1     0.0428
     85 H         5.203933   -5.616681   -1.224114 H        1 UNL1     0.0428
     86 H         4.471879   -3.253888   -1.549929 H        1 UNL1     0.0317
     87 H         3.09481   -3.440145   -0.564364 H        1 UNL1     0.0317
     88 H         4.31356   -6.489686   1.811476 H        1 UNL1     0.0429
     89 H         3.22643   -7.735551   1.193249 H        1 UNL1     0.0429
     90 H         6.136981   -7.221375   0.639036 H        1 UNL1     0.0308
     91 H         4.319253   -9.689506   0.668099 H        1 UNL1     0.0233
     92 H         6.029072   -9.752281   0.170028 H        1 UNL1     0.0233
     93 H         5.603003   -9.299651   1.806547 H        1 UNL1     0.0233
     94 H         5.82048   -8.41003   -1.65354 H        1 UNL1     0.0233
     95 H         4.191692   -7.719817   -1.582939 H        1 UNL1     0.0233
     96 H         5.612411   -6.650518   -1.536582 H        1 UNL1     0.0233
     97 H         -0.94727   -4.192726   -9.917537 H        1 UNL1     0.0280
     98 H         -1.376692   -2.628384   -9.280655 H        1 UNL1     0.0280
     99 H         0.058144   -2.793144   -10.336038 H        1 UNL1     0.0280
     100 H         2.09323   -6.07661   -9.098949 H        1 UNL1     0.2922
     101 H         4.350922   1.866371   -1.811792 H        1 UNL1     0.0236
     102 H         4.444782   1.541437   -3.587086 H        1 UNL1     0.0236
     103 H         5.66003   0.953433   -2.494877 H        1 UNL1     0.0236
     104 H         4.113798   1.407353   -0.253624 H        1 UNL1     0.2098
     105 H         0.960503   0.227908   1.426983 H        1 UNL1     0.0234
     106 H         -0.430748   1.273503   1.024182 H        1 UNL1     0.0234
     107 H         -0.0   0.0   0.0 H        1 UNL1     0.0234
     108 H         1.249069   2.120211   -2.625109 H        1 UNL1     0.2098
     109 H         -0.678468   -0.36255   -1.594307 H        1 UNL1     0.0234
     110 H         -1.692009   -0.771035   -0.173505 H        1 UNL1     0.0234
     111 H         -2.200798   -1.211051   -1.766101 H        1 UNL1     0.0234
     112 H         -0.617482   3.801163   1.525746 H        1 UNL1     0.0342
     113 H         -0.195988   2.989669   3.075604 H        1 UNL1     0.0342
     114 H         -0.104328   2.104813   1.550284 H        1 UNL1     0.0342
     115 H         -2.711974   4.84147   -0.780389 H        1 UNL1     0.0234
     116 H         -1.143523   5.331459   -1.428971 H        1 UNL1     0.0234
     117 H         -2.230708   4.222056   -2.289727 H        1 UNL1     0.0234
     118 H         -2.782732   -1.38905   -5.779837 H        1 UNL1     0.0309
     119 H         -1.871956   -2.918576   -5.582102 H        1 UNL1     0.0309
     120 H         -1.980459   -1.73995   -4.293217 H        1 UNL1     0.0309
     121 H         -2.652597   4.323869   -4.398123 H        1 UNL1     0.0524
     122 H         -2.290628   2.813252   -5.243032 H        1 UNL1     0.0524
     123 H         -3.871825   3.021874   -4.449285 H        1 UNL1     0.0524
@<TRIPOS>BOND
     1     1     2    1
     2     1    42    1
     3     2     3    2
     4     3     4    1
     5     4     5    2
     6     5     7    1
     7     6    75    1
     8     6    76    1
     9     6    77    1
    10     7     9   am
    11     9    10    1
    12    10    11    2
    13    10    43    1
    14    11    14    1
    15    11    15    1
    16    12    13   ar
    17    12    27   ar
    18    12    43    1
    19    13    14    1
    20    13    30   ar
    21    14    17    2
    22    15    16    1
    23    16    17    1
    24    16    18    1
    25    16    22    1
    26    18    19    1
    27    19    20    1
    28    20    21    1
    29    21    22    1
    30    23    24    1
    31    23    88    1
    32    23    89    1
    33    24    25    1
    34    24    26    1
    35    24    90    1
    36    25    91    1
    37    25    92    1
    38    25    93    1
    39    26    94    1
    40    26    95    1
    41    26    96    1
    42    27    28   ar
    43    28    29   ar
    44    29    30   ar
    45    29    31    1
    46    30    33    1
    47    31    32    1
    48    32    33    1
    49    32    35    1
    50    34    97    1
    51    34    98    1
    52    34    99    1
    53    35    61    1
    54    36    37    1
    55    36    60    1
    56    37    38    1
    57    38    39    1
    58    39    40    1
    59    40    41    1
    60    41    42    1
    61    45   100    1
    62    47   101    1
    63    47   102    1
    64    47   103    1
    65    48   104    1
    66    49   105    1
    67    49   106    1
    68    49   107    1
    69    50   108    1
    70    51    59    1
    71    52   109    1
    72    52   110    1
    73    52   111    1
    74    53    54    1
    75    54    55    2
    76    54    56    1
    77    56   112    1
    78    56   113    1
    79    56   114    1
    80    57   115    1
    81    57   116    1
    82    57   117    1
    83    58   118    1
    84    58   119    1
    85    58   120    1
    86    59   121    1
    87    59   122    1
    88    59   123    1
    89    60    61    2
    90     1    47    1
    91     1    62    1
    92     2    63    1
    93     3    64    1
    94     4    65    1
    95     5     6    1
    96     7     8    2
    97     9    78    1
    98    15    79    1
    99    18    80    1
   100    18    81    1
   101    19    82    1
   102    19    83    1
   103    20    23    1
   104    21    84    1
   105    21    85    1
   106    22    86    1
   107    22    87    1
   108    27    45    1
   109    28    34    1
   110    32    58    1
   111    33    46    2
   112    36    51    1
   113    36    66    1
   114    37    52    1
   115    37    67    1
   116    38    53    1
   117    38    68    1
   118    42    48    1
   119    42    72    1
   120    43    44    2
   121    60    73    1
   122    61    74    1
   123    39    69    1
   124    39    57    1
   125    40    70    1
   126    40    50    1
   127    41    71    1
   128    41    49    1
