@<TRIPOS>MOLECULE
*****
 123 128 0 0 0
SMALL
GASTEIGER

@<TRIPOS>ATOM
     1 C         -3.68338   2.12054   3.448214 C.3        1 UNL1     0.0009
     2 C         -4.628484   3.643529   3.921838 C.2        1 UNL1     -0.0787
     3 C         -4.837385   4.766073   4.811951 C.2        1 UNL1     -0.0649
     4 C         -5.93282   6.044744   4.634806 C.2        1 UNL1     -0.0542
     5 C         -6.246039   7.368513   5.030545 C.2        1 UNL1     0.0115
     6 C         -5.880672   8.501374   6.028771 C.3        1 UNL1     -0.0348
     7 C         -7.269624   8.224527   4.138076 C.2        1 UNL1     0.2441
     8 O         -8.438352   8.402695   4.452492 O.2        1 UNL1     -0.2702
     9 N         -6.670999   8.971633   3.108691 N.am        1 UNL1     -0.2772
     10 C         -6.563124   8.213553   1.96545 C.2        1 UNL1     0.1049
     11 C         -5.519348   7.407192   1.898108 C.2        1 UNL1     0.0801
     12 C         -7.869703   6.711682   0.450667 C.ar        1 UNL1     0.0753
     13 C         -6.794216   5.776096   0.579557 C.ar        1 UNL1     0.0305
     14 C         -5.525875   6.149252   1.201746 C.2        1 UNL1     0.0924
     15 N         -4.42101   7.3496   2.670678 N.pl3        1 UNL1     -0.3170
     16 C         -3.510635   6.410605   2.070879 C.3        1 UNL1     0.1275
     17 N         -4.399274   5.451779   1.31676 N.2        1 UNL1     -0.2557
     18 C         -2.711452   7.167436   1.014368 C.3        1 UNL1     0.0016
     19 C         -2.038367   8.359768   1.675344 C.3        1 UNL1     0.0026
     20 N         -1.17165   7.876133   2.741143 N.3        1 UNL1     -0.3018
     21 C         -1.840388   7.082963   3.774603 C.3        1 UNL1     0.0026
     22 C         -2.505675   5.888244   3.089085 C.3        1 UNL1     0.0016
     23 C         -0.262859   8.892066   3.23371 C.3        1 UNL1     0.0012
     24 C         -0.454227   10.206445   2.460702 C.3        1 UNL1     -0.0339
     25 C         -1.173297   11.262422   3.316219 C.3        1 UNL1     -0.0615
     26 C         0.885511   10.713639   1.956086 C.3        1 UNL1     -0.0615
     27 C         -9.028995   6.386703   -0.249726 C.ar        1 UNL1     0.1347
     28 C         -9.210753   5.176547   -0.895123 C.ar        1 UNL1     0.0342
     29 C         -8.15932   4.253162   -0.713425 C.ar        1 UNL1     0.1435
     30 C         -7.007681   4.55169   0.01584 C.ar        1 UNL1     0.0774
     31 O         -8.137504   3.072068   -1.368823 O.3        1 UNL1     -0.4436
     32 C         -6.765579   2.652777   -1.31507 C.3        1 UNL1     0.3143
     33 C         -6.177989   3.372512   -0.118018 C.2        1 UNL1     0.2504
     34 C         -10.309787   4.852719   -1.868447 C.3        1 UNL1     -0.0327
     35 O         -6.759545   1.25382   -1.005014 O.2        1 UNL1     -0.4528
     36 C         -3.644789   -0.162803   -2.648048 C.3        1 UNL1     0.0854
     37 C         -2.137219   0.258541   -2.455106 C.3        1 UNL1     0.0236
     38 C         -1.150674   -0.933881   -2.034867 C.3        1 UNL1     0.1131
     39 C         -1.523527   -1.867984   -0.813923 C.3        1 UNL1     0.0200
     40 C         -2.126188   -1.213759   0.597185 C.3        1 UNL1     0.0661
     41 C         -1.455125   0.086404   1.45559 C.3        1 UNL1     0.0091
     42 C         -2.261711   1.390234   2.462988 C.3        1 UNL1     0.0661
     43 C         -7.673014   8.071543   1.011337 C.2        1 UNL1     0.2131
     44 O         -8.303361   9.047511   0.646802 O.2        1 UNL1     -0.2851
     45 O         -10.04679   7.33748   -0.289133 O.3        1 UNL1     -0.5056
     46 O         -5.248422   3.0369   0.581356 O.2        1 UNL1     -0.2836
     47 C         -4.051892   0.942593   4.38982 C.3        1 UNL1     -0.0566
     48 O         -1.327073   1.245604   3.605201 O.3        1 UNL1     -0.3909
     49 C         -0.433878   0.775327   0.578132 C.3        1 UNL1     -0.0577
     50 O         -3.530421   -1.070797   0.523596 O.3        1 UNL1     -0.3910
     51 O         -3.970677   -1.479179   -2.262844 O.3        1 UNL1     -0.3753
     52 C         -2.007255   1.695962   -1.853542 C.3        1 UNL1     -0.0564
     53 O         0.302582   -0.597022   -2.198873 O.3        1 UNL1     -0.4608
     54 C         1.351158   -1.391493   -1.815163 C.2        1 UNL1     0.3042
     55 O         1.595315   -2.538024   -2.18892 O.2        1 UNL1     -0.2512
     56 C         2.306391   -0.713746   -0.87447 C.3        1 UNL1     0.0332
     57 C         -2.249561   -3.165479   -1.403462 C.3        1 UNL1     -0.0567
     58 C         -6.093252   3.19032   -2.599808 C.3        1 UNL1     0.0210
     59 C         -5.284755   -1.90155   -2.624323 C.3        1 UNL1     0.0372
     60 C         -4.636881   0.733739   -1.994499 C.2        1 UNL1     -0.0208
     61 C         -5.715469   0.443872   -1.265548 C.2        1 UNL1     0.0882
     62 H         -4.321316   2.023684   2.56144 H        1 UNL1     0.0365
     63 H         -5.419549   3.63454   3.169106 H        1 UNL1     0.0576
     64 H         -4.15453   4.976268   5.638168 H        1 UNL1     0.0615
     65 H         -6.609268   5.701213   3.847477 H        1 UNL1     0.0622
     66 H         -3.821103   -0.070175   -3.728964 H        1 UNL1     0.0645
     67 H         -1.788218   0.48186   -3.478281 H        1 UNL1     0.0362
     68 H         -1.241222   -1.570908   -2.927906 H        1 UNL1     0.0741
     69 H         -0.628792   -2.374465   -0.477271 H        1 UNL1     0.0359
     70 H         -1.970689   -2.067145   1.284654 H        1 UNL1     0.0600
     71 H         -0.800474   -0.464014   2.159457 H        1 UNL1     0.0348
     72 H         -2.992963   0.572781   2.383264 H        1 UNL1     0.0602
     73 H         -4.450781   1.735947   -2.291472 H        1 UNL1     0.0628
     74 H         -5.946008   -0.546844   -0.872392 H        1 UNL1     0.1022
     75 H         -6.74492   8.727149   6.698947 H        1 UNL1     0.0279
     76 H         -5.084667   8.285161   6.737783 H        1 UNL1     0.0279
     77 H         -5.730627   9.472132   5.533983 H        1 UNL1     0.0279
     78 H         -5.730069   9.243358   3.385989 H        1 UNL1     0.1553
     79 H         -4.115975   8.100751   3.261998 H        1 UNL1     0.1484
     80 H         -1.974919   6.488072   0.568554 H        1 UNL1     0.0317
     81 H         -3.360939   7.504187   0.19925 H        1 UNL1     0.0317
     82 H         -2.774303   9.081004   2.06022 H        1 UNL1     0.0428
     83 H         -1.475508   8.886284   0.903968 H        1 UNL1     0.0428
     84 H         -1.15529   6.665446   4.519003 H        1 UNL1     0.0428
     85 H         -2.540098   7.689227   4.366352 H        1 UNL1     0.0428
     86 H         -2.868565   5.263462   3.884036 H        1 UNL1     0.0317
     87 H         -1.745817   5.264421   2.602714 H        1 UNL1     0.0317
     88 H         -0.493153   9.072252   4.291913 H        1 UNL1     0.0429
     89 H         0.779641   8.5521   3.184811 H        1 UNL1     0.0429
     90 H         -1.057342   10.012317   1.565839 H        1 UNL1     0.0308
     91 H         -2.140693   11.533725   2.883042 H        1 UNL1     0.0233
     92 H         -1.326185   10.896127   4.33409 H        1 UNL1     0.0233
     93 H         -0.594821   12.189608   3.408555 H        1 UNL1     0.0233
     94 H         0.739679   11.583076   1.305973 H        1 UNL1     0.0233
     95 H         1.509163   11.023917   2.799145 H        1 UNL1     0.0233
     96 H         1.415986   9.943404   1.389251 H        1 UNL1     0.0233
     97 H         -10.236778   3.835623   -2.241832 H        1 UNL1     0.0280
     98 H         -11.304648   4.934408   -1.411462 H        1 UNL1     0.0280
     99 H         -10.25632   5.540985   -2.727822 H        1 UNL1     0.0280
     100 H         -10.865431   7.050013   0.075302 H        1 UNL1     0.2922
     101 H         -3.914367   1.244761   5.427817 H        1 UNL1     0.0236
     102 H         -3.515172   0.023549   4.156855 H        1 UNL1     0.0236
     103 H         -5.118345   0.671581   4.316184 H        1 UNL1     0.0236
     104 H         -0.776169   2.052017   3.639463 H        1 UNL1     0.2098
     105 H         -0.852166   1.507638   -0.107848 H        1 UNL1     0.0234
     106 H         0.414013   1.201214   1.114442 H        1 UNL1     0.0234
     107 H         0.0   0.0   0.0 H        1 UNL1     0.0234
     108 H         -3.717115   -0.37697   -0.137856 H        1 UNL1     0.2098
     109 H         -1.390449   2.35502   -2.480364 H        1 UNL1     0.0234
     110 H         -2.97519   2.17197   -1.663117 H        1 UNL1     0.0234
     111 H         -1.520102   1.680343   -0.869477 H        1 UNL1     0.0234
     112 H         3.336137   -0.884387   -1.202875 H        1 UNL1     0.0342
     113 H         2.09882   0.350766   -0.776633 H        1 UNL1     0.0342
     114 H         2.190054   -1.168255   0.119035 H        1 UNL1     0.0342
     115 H         -2.923926   -2.914321   -2.233727 H        1 UNL1     0.0234
     116 H         -1.562308   -3.935289   -1.760009 H        1 UNL1     0.0234
     117 H         -2.951237   -3.637354   -0.694289 H        1 UNL1     0.0234
     118 H         -5.045615   2.854034   -2.691322 H        1 UNL1     0.0309
     119 H         -6.635909   2.923975   -3.512379 H        1 UNL1     0.0309
     120 H         -6.00925   4.282577   -2.604824 H        1 UNL1     0.0309
     121 H         -5.224598   -2.356719   -3.612533 H        1 UNL1     0.0524
     122 H         -5.685054   -2.661411   -1.932652 H        1 UNL1     0.0524
     123 H         -5.960764   -1.051415   -2.643736 H        1 UNL1     0.0524
@<TRIPOS>BOND
     1     1     2    1
     2     1    42    1
     3     2     3    2
     4     3     4    1
     5     4     5    2
     6     5     7    1
     7     6    75    1
     8     6    76    1
     9     6    77    1
    10     7     9   am
    11     9    10    1
    12    10    11    2
    13    10    43    1
    14    11    14    1
    15    11    15    1
    16    12    13   ar
    17    12    27   ar
    18    12    43    1
    19    13    14    1
    20    13    30   ar
    21    14    17    2
    22    15    16    1
    23    16    17    1
    24    16    18    1
    25    16    22    1
    26    18    19    1
    27    19    20    1
    28    20    21    1
    29    21    22    1
    30    23    24    1
    31    23    88    1
    32    23    89    1
    33    24    25    1
    34    24    26    1
    35    24    90    1
    36    25    91    1
    37    25    92    1
    38    25    93    1
    39    26    94    1
    40    26    95    1
    41    26    96    1
    42    27    28   ar
    43    28    29   ar
    44    29    30   ar
    45    29    31    1
    46    30    33    1
    47    31    32    1
    48    32    33    1
    49    32    35    1
    50    34    97    1
    51    34    98    1
    52    34    99    1
    53    35    61    1
    54    36    37    1
    55    36    60    1
    56    37    38    1
    57    38    39    1
    58    39    40    1
    59    40    41    1
    60    41    42    1
    61    45   100    1
    62    47   101    1
    63    47   102    1
    64    47   103    1
    65    48   104    1
    66    49   105    1
    67    49   106    1
    68    49   107    1
    69    50   108    1
    70    51    59    1
    71    52   109    1
    72    52   110    1
    73    52   111    1
    74    53    54    1
    75    54    55    2
    76    54    56    1
    77    56   112    1
    78    56   113    1
    79    56   114    1
    80    57   115    1
    81    57   116    1
    82    57   117    1
    83    58   118    1
    84    58   119    1
    85    58   120    1
    86    59   121    1
    87    59   122    1
    88    59   123    1
    89    60    61    2
    90     1    47    1
    91     1    62    1
    92     2    63    1
    93     3    64    1
    94     4    65    1
    95     5     6    1
    96     7     8    2
    97     9    78    1
    98    15    79    1
    99    18    80    1
   100    18    81    1
   101    19    82    1
   102    19    83    1
   103    20    23    1
   104    21    84    1
   105    21    85    1
   106    22    86    1
   107    22    87    1
   108    27    45    1
   109    28    34    1
   110    32    58    1
   111    33    46    2
   112    36    51    1
   113    36    66    1
   114    37    52    1
   115    37    67    1
   116    38    53    1
   117    38    68    1
   118    42    48    1
   119    42    72    1
   120    43    44    2
   121    60    73    1
   122    61    74    1
   123    39    69    1
   124    39    57    1
   125    40    70    1
   126    40    50    1
   127    41    71    1
   128    41    49    1
