@<TRIPOS>MOLECULE
*****
 123 128 0 0 0
SMALL
GASTEIGER

@<TRIPOS>ATOM
     1 C         3.775883   -1.747202   -2.844307 C.3        1 UNL1     0.0009
     2 C         4.130818   -1.91998   -4.655717 C.2        1 UNL1     -0.0787
     3 C         4.379352   -2.753568   -5.813045 C.2        1 UNL1     -0.0649
     4 C         4.540607   -2.270907   -7.427787 C.2        1 UNL1     -0.0542
     5 C         4.48537   -2.696645   -8.777889 C.2        1 UNL1     0.0115
     6 C         4.395087   -3.943996   -9.699457 C.3        1 UNL1     -0.0348
     7 C         4.328196   -1.594324   -9.934251 C.2        1 UNL1     0.2441
     8 O         5.263395   -1.220199   -10.628483 O.2        1 UNL1     -0.2702
     9 N         3.000246   -1.279376   -10.27116 N.am        1 UNL1     -0.2772
     10 C         2.528146   -0.267047   -9.467646 C.2        1 UNL1     0.1049
     11 C         2.072397   -0.629374   -8.28222 C.2        1 UNL1     0.0801
     12 C         3.105105   2.004857   -8.594202 C.ar        1 UNL1     0.0753
     13 C         2.795793   1.496916   -7.292307 C.ar        1 UNL1     0.0305
     14 C         2.143381   0.202062   -7.111301 C.2        1 UNL1     0.0924
     15 N         1.795998   -1.853203   -7.800167 N.pl3        1 UNL1     -0.3170
     16 C         1.162988   -1.688041   -6.518654 C.3        1 UNL1     0.1275
     17 N         1.697899   -0.375836   -5.999318 N.2        1 UNL1     -0.2557
     18 C         -0.324844   -1.467401   -6.774339 C.3        1 UNL1     0.0016
     19 C         -0.856214   -2.634387   -7.591272 C.3        1 UNL1     0.0026
     20 N         -0.629224   -3.866726   -6.849083 N.3        1 UNL1     -0.3018
     21 C         0.767869   -4.135094   -6.501985 C.3        1 UNL1     0.0026
     22 C         1.279909   -2.952518   -5.677835 C.3        1 UNL1     0.0016
     23 C         -1.358235   -4.995103   -7.393098 C.3        1 UNL1     0.0012
     24 C         -2.421426   -4.517198   -8.394591 C.3        1 UNL1     -0.0339
     25 C         -2.007668   -3.197964   -9.067261 C.3        1 UNL1     -0.0615
     26 C         -2.698079   -5.604129   -9.418712 C.3        1 UNL1     -0.0615
     27 C         3.615661   3.289463   -8.765189 C.ar        1 UNL1     0.1347
     28 C         3.821015   4.169356   -7.717491 C.ar        1 UNL1     0.0342
     29 C         3.55563   3.630451   -6.440653 C.ar        1 UNL1     0.1435
     30 C         3.078082   2.333029   -6.251278 C.ar        1 UNL1     0.0774
     31 O         3.601856   4.396502   -5.328881 O.3        1 UNL1     -0.4436
     32 C         2.840763   3.6674   -4.354191 C.3        1 UNL1     0.3143
     33 C         2.875649   2.226336   -4.821451 C.2        1 UNL1     0.2504
     34 C         4.124317   5.636304   -7.844646 C.3        1 UNL1     -0.0327
     35 O         3.565364   3.723203   -3.119245 O.2        1 UNL1     -0.4528
     36 C         0.951368   3.57118   -0.371154 C.3        1 UNL1     0.0854
     37 C         -0.145601   2.471056   -0.099293 C.3        1 UNL1     0.0236
     38 C         -0.117571   1.838243   1.373971 C.3        1 UNL1     0.1131
     39 C         1.241148   1.283963   1.96467 C.3        1 UNL1     0.0200
     40 C         2.259954   0.362146   1.018772 C.3        1 UNL1     0.0661
     41 C         1.807478   -0.984039   0.091053 C.3        1 UNL1     0.0091
     42 C         2.473089   -1.611436   -1.499148 C.3        1 UNL1     0.0661
     43 C         2.780228   1.151099   -9.763737 C.2        1 UNL1     0.2131
     44 O         2.621456   1.58495   -10.89037 O.2        1 UNL1     -0.2851
     45 O         3.932935   3.690304   -10.061377 O.3        1 UNL1     -0.5056
     46 O         2.780262   1.217052   -4.15956 O.2        1 UNL1     -0.2836
     47 C         5.057282   -2.028846   -2.014442 C.3        1 UNL1     -0.0566
     48 O         2.567668   -3.017003   -1.035949 O.3        1 UNL1     -0.3909
     49 C         0.299344   -1.016699   -0.018309 C.3        1 UNL1     -0.0577
     50 O         3.13855   1.18566   0.27876 O.3        1 UNL1     -0.3910
     51 O         1.920645   3.737489   0.638933 O.3        1 UNL1     -0.3753
     52 C         -0.429317   1.605722   -1.370375 C.3        1 UNL1     -0.0564
     53 O         -1.359555   1.070855   1.721704 O.3        1 UNL1     -0.4608
     54 C         -1.72572   -0.135226   1.183911 C.2        1 UNL1     0.3042
     55 O         -1.448991   -1.256742   1.60754 O.2        1 UNL1     -0.2512
     56 C         -2.608744   -0.011372   -0.025072 C.3        1 UNL1     0.0332
     57 C         1.893262   2.447202   2.847732 C.3        1 UNL1     -0.0567
     58 C         1.388379   4.189117   -4.453789 C.3        1 UNL1     0.0210
     59 C         2.705155   4.92406   0.527312 C.3        1 UNL1     0.0372
     60 C         1.690208   3.418939   -1.654158 C.2        1 UNL1     -0.0208
     61 C         2.994127   3.514924   -1.917456 C.2        1 UNL1     0.0882
     62 H         3.722326   -0.660023   -2.978048 H        1 UNL1     0.0365
     63 H         4.230884   -0.871611   -4.944473 H        1 UNL1     0.0576
     64 H         4.321167   -3.842872   -5.75702 H        1 UNL1     0.0615
     65 H         4.669429   -1.187006   -7.364176 H        1 UNL1     0.0622
     66 H         0.385587   4.509404   -0.458754 H        1 UNL1     0.0645
     67 H         -1.093112   3.036998   -0.077076 H        1 UNL1     0.0362
     68 H         -0.347188   2.737945   1.965016 H        1 UNL1     0.0741
     69 H         1.017127   0.619816   2.788765 H        1 UNL1     0.0359
     70 H         2.897137   -0.08568   1.805226 H        1 UNL1     0.0600
     71 H         1.989502   -1.794093   0.82429 H        1 UNL1     0.0348
     72 H         3.250884   -0.954957   -1.082752 H        1 UNL1     0.0602
     73 H         0.993229   3.330427   -2.45017 H        1 UNL1     0.0628
     74 H         3.775703   3.549738   -1.157743 H        1 UNL1     0.1022
     75 H         4.093848   -4.844556   -9.111852 H        1 UNL1     0.0279
     76 H         3.642609   -3.913892   -10.484275 H        1 UNL1     0.0279
     77 H         5.374995   -4.256949   -10.088741 H        1 UNL1     0.0279
     78 H         2.406937   -2.092505   -10.119889 H        1 UNL1     0.1553
     79 H         1.649785   -2.659825   -8.378886 H        1 UNL1     0.1484
     80 H         -0.844247   -1.382649   -5.812153 H        1 UNL1     0.0317
     81 H         -0.494938   -0.525264   -7.306408 H        1 UNL1     0.0317
     82 H         -0.390237   -2.680224   -8.586599 H        1 UNL1     0.0428
     83 H         -1.918039   -2.455902   -7.763674 H        1 UNL1     0.0428
     84 H         0.901711   -5.023625   -5.877156 H        1 UNL1     0.0428
     85 H         1.378045   -4.340668   -7.392345 H        1 UNL1     0.0428
     86 H         2.254685   -3.241665   -5.331145 H        1 UNL1     0.0317
     87 H         0.698261   -2.86091   -4.752422 H        1 UNL1     0.0317
     88 H         -0.644398   -5.639846   -7.922284 H        1 UNL1     0.0429
     89 H         -1.808778   -5.60049   -6.596047 H        1 UNL1     0.0429
     90 H         -3.367856   -4.357108   -7.864634 H        1 UNL1     0.0308
     91 H         -1.955556   -2.380759   -8.341615 H        1 UNL1     0.0233
     92 H         -1.037979   -3.302868   -9.559508 H        1 UNL1     0.0233
     93 H         -2.714078   -2.886967   -9.846428 H        1 UNL1     0.0233
     94 H         -3.694593   -5.469114   -9.852955 H        1 UNL1     0.0233
     95 H         -1.966554   -5.548285   -10.229708 H        1 UNL1     0.0233
     96 H         -2.649645   -6.599152   -8.967545 H        1 UNL1     0.0233
     97 H         5.076517   5.896242   -7.391899 H        1 UNL1     0.0280
     98 H         4.192882   5.955373   -8.892859 H        1 UNL1     0.0280
     99 H         3.333755   6.221137   -7.346573 H        1 UNL1     0.0280
     100 H         3.734419   4.590112   -10.252579 H        1 UNL1     0.2922
     101 H         5.142222   -3.097903   -1.82064 H        1 UNL1     0.0236
     102 H         5.112496   -1.441494   -1.098499 H        1 UNL1     0.0236
     103 H         5.974913   -1.771221   -2.569218 H        1 UNL1     0.0236
     104 H         3.50002   -3.295337   -1.126623 H        1 UNL1     0.2098
     105 H         -0.074737   -1.457143   -0.939115 H        1 UNL1     0.0234
     106 H         -0.210331   -1.450159   0.842082 H        1 UNL1     0.0234
     107 H         -0.0   0.0   0.0 H        1 UNL1     0.0234
     108 H         3.561677   1.799226   0.909845 H        1 UNL1     0.2098
     109 H         -1.465   1.710905   -1.722525 H        1 UNL1     0.0234
     110 H         0.260978   1.81315   -2.195124 H        1 UNL1     0.0234
     111 H         -0.290745   0.534897   -1.170178 H        1 UNL1     0.0234
     112 H         -2.896716   1.034286   -0.170047 H        1 UNL1     0.0342
     113 H         -2.136817   -0.414327   -0.919921 H        1 UNL1     0.0342
     114 H         -3.524283   -0.590552   0.157972 H        1 UNL1     0.0342
     115 H         1.919463   2.184424   3.914245 H        1 UNL1     0.0234
     116 H         2.909339   2.713867   2.550199 H        1 UNL1     0.0234
     117 H         1.291386   3.371947   2.870836 H        1 UNL1     0.0234
     118 H         0.708103   3.655323   -3.76728 H        1 UNL1     0.0309
     119 H         1.305416   5.265818   -4.274806 H        1 UNL1     0.0309
     120 H         0.944172   4.010403   -5.439105 H        1 UNL1     0.0309
     121 H         2.218544   5.573861   -0.199547 H        1 UNL1     0.0524
     122 H         2.764943   5.477178   1.479428 H        1 UNL1     0.0524
     123 H         3.711035   4.679952   0.197599 H        1 UNL1     0.0524
@<TRIPOS>BOND
     1     1     2    1
     2     1    42    1
     3     2     3    2
     4     3     4    1
     5     4     5    2
     6     5     7    1
     7     6    75    1
     8     6    76    1
     9     6    77    1
    10     7     9   am
    11     9    10    1
    12    10    11    2
    13    10    43    1
    14    11    14    1
    15    11    15    1
    16    12    13   ar
    17    12    27   ar
    18    12    43    1
    19    13    14    1
    20    13    30   ar
    21    14    17    2
    22    15    16    1
    23    16    17    1
    24    16    18    1
    25    16    22    1
    26    18    19    1
    27    19    20    1
    28    20    21    1
    29    21    22    1
    30    23    24    1
    31    23    88    1
    32    23    89    1
    33    24    25    1
    34    24    26    1
    35    24    90    1
    36    25    91    1
    37    25    92    1
    38    25    93    1
    39    26    94    1
    40    26    95    1
    41    26    96    1
    42    27    28   ar
    43    28    29   ar
    44    29    30   ar
    45    29    31    1
    46    30    33    1
    47    31    32    1
    48    32    33    1
    49    32    35    1
    50    34    97    1
    51    34    98    1
    52    34    99    1
    53    35    61    1
    54    36    37    1
    55    36    60    1
    56    37    38    1
    57    38    39    1
    58    39    40    1
    59    40    41    1
    60    41    42    1
    61    45   100    1
    62    47   101    1
    63    47   102    1
    64    47   103    1
    65    48   104    1
    66    49   105    1
    67    49   106    1
    68    49   107    1
    69    50   108    1
    70    51    59    1
    71    52   109    1
    72    52   110    1
    73    52   111    1
    74    53    54    1
    75    54    55    2
    76    54    56    1
    77    56   112    1
    78    56   113    1
    79    56   114    1
    80    57   115    1
    81    57   116    1
    82    57   117    1
    83    58   118    1
    84    58   119    1
    85    58   120    1
    86    59   121    1
    87    59   122    1
    88    59   123    1
    89    60    61    2
    90     1    47    1
    91     1    62    1
    92     2    63    1
    93     3    64    1
    94     4    65    1
    95     5     6    1
    96     7     8    2
    97     9    78    1
    98    15    79    1
    99    18    80    1
   100    18    81    1
   101    19    82    1
   102    19    83    1
   103    20    23    1
   104    21    84    1
   105    21    85    1
   106    22    86    1
   107    22    87    1
   108    27    45    1
   109    28    34    1
   110    32    58    1
   111    33    46    2
   112    36    51    1
   113    36    66    1
   114    37    52    1
   115    37    67    1
   116    38    53    1
   117    38    68    1
   118    42    48    1
   119    42    72    1
   120    43    44    2
   121    60    73    1
   122    61    74    1
   123    39    69    1
   124    39    57    1
   125    40    70    1
   126    40    50    1
   127    41    71    1
   128    41    49    1
