@<TRIPOS>MOLECULE
*****
 123 128 0 0 0
SMALL
GASTEIGER

@<TRIPOS>ATOM
     1 C         5.164542   1.754946   0.496935 C.3        1 UNL1     0.0009
     2 C         6.600851   2.563696   -0.351579 C.2        1 UNL1     -0.0787
     3 C         7.883368   2.467779   -1.016407 C.2        1 UNL1     -0.0649
     4 C         8.759815   3.704737   -1.770152 C.2        1 UNL1     -0.0542
     5 C         9.780189   3.999573   -2.707695 C.2        1 UNL1     0.0115
     6 C         10.909856   3.37639   -3.573038 C.3        1 UNL1     -0.0348
     7 C         9.874095   5.483521   -3.312731 C.2        1 UNL1     0.2441
     8 O         10.696633   6.305867   -2.933648 O.2        1 UNL1     -0.2702
     9 N         9.124513   5.690629   -4.483792 N.am        1 UNL1     -0.2772
     10 C         7.841061   6.07537   -4.170666 C.2        1 UNL1     0.1049
     11 C         6.996296   5.1026   -3.8803 C.2        1 UNL1     0.0801
     12 C         6.539522   7.679029   -2.759422 C.ar        1 UNL1     0.0753
     13 C         5.781565   6.549721   -2.31358 C.ar        1 UNL1     0.0305
     14 C         5.900668   5.244779   -2.960103 C.2        1 UNL1     0.0924
     15 N         7.120742   3.773931   -4.040543 N.pl3        1 UNL1     -0.3170
     16 C         5.85141   3.172839   -3.727913 C.3        1 UNL1     0.1275
     17 N         5.21303   4.126335   -2.747586 N.2        1 UNL1     -0.2557
     18 C         4.999462   3.232006   -4.992186 C.3        1 UNL1     0.0016
     19 C         5.75609   2.549944   -6.120855 C.3        1 UNL1     0.0026
     20 N         6.0277   1.171827   -5.736083 N.3        1 UNL1     -0.3018
     21 C         6.790306   1.011245   -4.496319 C.3        1 UNL1     0.0026
     22 C         6.009811   1.699712   -3.375276 C.3        1 UNL1     0.0016
     23 C         6.474113   0.353904   -6.8462 C.3        1 UNL1     0.0012
     24 C         5.319747   0.103872   -7.829399 C.3        1 UNL1     -0.0339
     25 C         5.35509   1.097169   -9.002501 C.3        1 UNL1     -0.0615
     26 C         5.351066   -1.335132   -8.314236 C.3        1 UNL1     -0.0615
     27 C         6.332821   8.945951   -2.218774 C.ar        1 UNL1     0.1347
     28 C         5.372678   9.213369   -1.259262 C.ar        1 UNL1     0.0342
     29 C         4.672216   8.077589   -0.800436 C.ar        1 UNL1     0.1435
     30 C         4.893691   6.796319   -1.306911 C.ar        1 UNL1     0.0774
     31 O         3.630423   8.189021   0.052358 O.3        1 UNL1     -0.4436
     32 C         2.910436   6.955412   -0.091514 C.3        1 UNL1     0.3143
     33 C         3.925413   5.964104   -0.623813 C.2        1 UNL1     0.2504
     34 C         4.923751   10.578485   -0.817651 C.3        1 UNL1     -0.0327
     35 O         2.549349   6.517017   1.224039 O.2        1 UNL1     -0.4528
     36 C         -0.690914   4.581052   0.82301 C.3        1 UNL1     0.0854
     37 C         -0.993917   3.320917   -0.075752 C.3        1 UNL1     0.0236
     38 C         -1.593459   2.058369   0.710547 C.3        1 UNL1     0.1131
     39 C         -0.868017   1.52715   2.012012 C.3        1 UNL1     0.0200
     40 C         0.793329   1.383694   2.054316 C.3        1 UNL1     0.0661
     41 C         1.754575   0.617183   0.885522 C.3        1 UNL1     0.0091
     42 C         3.462127   0.982452   0.323163 C.3        1 UNL1     0.0661
     43 C         7.490685   7.473588   -3.879842 C.2        1 UNL1     0.2131
     44 O         7.889966   8.372846   -4.597231 O.2        1 UNL1     -0.2851
     45 O         7.144111   9.982524   -2.67568 O.3        1 UNL1     -0.5056
     46 O         3.942844   4.76047   -0.494142 O.2        1 UNL1     -0.2836
     47 C         5.560357   1.32464   1.935041 C.3        1 UNL1     -0.0566
     48 O         3.912434   -0.428153   0.403981 O.3        1 UNL1     -0.3909
     49 C         0.921631   0.384678   -0.3553 C.3        1 UNL1     -0.0577
     50 O         1.391668   2.601958   2.448708 O.3        1 UNL1     -0.3910
     51 O         -0.815819   4.389928   2.214161 O.3        1 UNL1     -0.3753
     52 C         0.05162   3.162851   -1.227628 C.3        1 UNL1     -0.0564
     53 O         -2.194047   1.019451   -0.190712 O.3        1 UNL1     -0.4608
     54 C         -2.427043   -0.287914   0.147578 C.2        1 UNL1     0.3042
     55 O         -1.856334   -1.28591   -0.290754 O.2        1 UNL1     -0.2512
     56 C         -3.467663   -0.45588   1.21791 C.3        1 UNL1     0.0332
     57 C         -1.590859   2.194053   3.273326 C.3        1 UNL1     -0.0567
     58 C         1.835752   7.200131   -1.176271 C.3        1 UNL1     0.0210
     59 C         -1.131086   5.567846   2.955093 C.3        1 UNL1     0.0372
     60 C         0.637451   5.212047   0.593986 C.2        1 UNL1     -0.0208
     61 C         1.549169   5.647642   1.464487 C.2        1 UNL1     0.0882
     62 H         4.687297   2.738429   0.584749 H        1 UNL1     0.0365
     63 H         6.333177   3.617057   -0.245505 H        1 UNL1     0.0576
     64 H         8.342425   1.501719   -1.237999 H        1 UNL1     0.0615
     65 H         8.2713   4.61919   -1.42286 H        1 UNL1     0.0622
     66 H         -1.436282   5.326914   0.51291 H        1 UNL1     0.0645
     67 H         -1.859396   3.62974   -0.687416 H        1 UNL1     0.0362
     68 H         -2.541352   2.493711   1.061969 H        1 UNL1     0.0741
     69 H         -1.198395   0.51545   2.206231 H        1 UNL1     0.0359
     70 H         0.905282   0.722695   2.935002 H        1 UNL1     0.0600
     71 H         1.799139   -0.404318   1.311557 H        1 UNL1     0.0348
     72 H         3.354881   1.46962   1.303204 H        1 UNL1     0.0602
     73 H         0.755878   5.4104   -0.442296 H        1 UNL1     0.0628
     74 H         1.531085   5.435972   2.534116 H        1 UNL1     0.1022
     75 H         10.955633   2.271029   -3.421003 H        1 UNL1     0.0279
     76 H         10.796932   3.460026   -4.651612 H        1 UNL1     0.0279
     77 H         11.914295   3.682077   -3.245379 H        1 UNL1     0.0279
     78 H         9.064019   4.821084   -5.009444 H        1 UNL1     0.1553
     79 H         7.787024   3.347357   -4.657825 H        1 UNL1     0.1484
     80 H         4.038663   2.739668   -4.799227 H        1 UNL1     0.0317
     81 H         4.771735   4.268718   -5.262409 H        1 UNL1     0.0317
     82 H         6.686261   3.082661   -6.367652 H        1 UNL1     0.0428
     83 H         5.13154   2.605108   -7.013012 H        1 UNL1     0.0428
     84 H         6.911724   -0.031836   -4.188015 H        1 UNL1     0.0428
     85 H         7.820005   1.380687   -4.599022 H        1 UNL1     0.0428
     86 H         6.525869   1.449175   -2.467034 H        1 UNL1     0.0317
     87 H         5.030883   1.220711   -3.251363 H        1 UNL1     0.0317
     88 H         7.269881   0.897199   -7.372393 H        1 UNL1     0.0429
     89 H         6.907651   -0.591637   -6.495813 H        1 UNL1     0.0429
     90 H         4.366165   0.221246   -7.301082 H        1 UNL1     0.0308
     91 H         6.308726   1.048098   -9.53661 H        1 UNL1     0.0233
     92 H         4.540982   0.896795   -9.702992 H        1 UNL1     0.0233
     93 H         5.227386   2.135816   -8.674266 H        1 UNL1     0.0233
     94 H         4.657377   -1.466719   -9.151681 H        1 UNL1     0.0233
     95 H         6.355163   -1.58943   -8.665069 H        1 UNL1     0.0233
     96 H         5.068423   -2.030442   -7.518859 H        1 UNL1     0.0233
     97 H         4.123631   10.52715   -0.085255 H        1 UNL1     0.0280
     98 H         5.732996   11.145644   -0.339415 H        1 UNL1     0.0280
     99 H         4.558812   11.146726   -1.688867 H        1 UNL1     0.0280
     100 H         6.676376   10.733355   -2.99677 H        1 UNL1     0.2922
     101 H         4.697719   0.889438   2.439135 H        1 UNL1     0.0236
     102 H         6.009672   2.130032   2.515078 H        1 UNL1     0.0236
     103 H         6.317632   0.522939   1.933779 H        1 UNL1     0.0236
     104 H         4.331156   -0.554495   1.277869 H        1 UNL1     0.2098
     105 H         0.708266   1.283759   -0.927961 H        1 UNL1     0.0234
     106 H         1.292521   -0.402273   -1.011864 H        1 UNL1     0.0234
     107 H         0.0   -0.0   0.0 H        1 UNL1     0.0234
     108 H         1.193397   3.260404   1.755235 H        1 UNL1     0.2098
     109 H         1.076313   3.05034   -0.846765 H        1 UNL1     0.0234
     110 H         -0.179253   2.336074   -1.90798 H        1 UNL1     0.0234
     111 H         0.072173   4.046285   -1.8796 H        1 UNL1     0.0234
     112 H         -3.59884   -1.518001   1.446027 H        1 UNL1     0.0342
     113 H         -3.225941   0.109778   2.11649 H        1 UNL1     0.0342
     114 H         -4.422505   -0.074086   0.831033 H        1 UNL1     0.0342
     115 H         -2.660192   1.944374   3.310401 H        1 UNL1     0.0234
     116 H         -1.154765   1.913977   4.234278 H        1 UNL1     0.0234
     117 H         -1.630831   3.295902   3.22567 H        1 UNL1     0.0234
     118 H         0.933746   7.685508   -0.764201 H        1 UNL1     0.0309
     119 H         2.205003   7.789355   -2.021652 H        1 UNL1     0.0309
     120 H         1.448694   6.268062   -1.602345 H        1 UNL1     0.0309
     121 H         -0.310836   6.272187   2.819262 H        1 UNL1     0.0524
     122 H         -2.051236   6.056039   2.593113 H        1 UNL1     0.0524
     123 H         -1.249543   5.328998   4.00819 H        1 UNL1     0.0524
@<TRIPOS>BOND
     1     1     2    1
     2     1    42    1
     3     2     3    2
     4     3     4    1
     5     4     5    2
     6     5     7    1
     7     6    75    1
     8     6    76    1
     9     6    77    1
    10     7     9   am
    11     9    10    1
    12    10    11    2
    13    10    43    1
    14    11    14    1
    15    11    15    1
    16    12    13   ar
    17    12    27   ar
    18    12    43    1
    19    13    14    1
    20    13    30   ar
    21    14    17    2
    22    15    16    1
    23    16    17    1
    24    16    18    1
    25    16    22    1
    26    18    19    1
    27    19    20    1
    28    20    21    1
    29    21    22    1
    30    23    24    1
    31    23    88    1
    32    23    89    1
    33    24    25    1
    34    24    26    1
    35    24    90    1
    36    25    91    1
    37    25    92    1
    38    25    93    1
    39    26    94    1
    40    26    95    1
    41    26    96    1
    42    27    28   ar
    43    28    29   ar
    44    29    30   ar
    45    29    31    1
    46    30    33    1
    47    31    32    1
    48    32    33    1
    49    32    35    1
    50    34    97    1
    51    34    98    1
    52    34    99    1
    53    35    61    1
    54    36    37    1
    55    36    60    1
    56    37    38    1
    57    38    39    1
    58    39    40    1
    59    40    41    1
    60    41    42    1
    61    45   100    1
    62    47   101    1
    63    47   102    1
    64    47   103    1
    65    48   104    1
    66    49   105    1
    67    49   106    1
    68    49   107    1
    69    50   108    1
    70    51    59    1
    71    52   109    1
    72    52   110    1
    73    52   111    1
    74    53    54    1
    75    54    55    2
    76    54    56    1
    77    56   112    1
    78    56   113    1
    79    56   114    1
    80    57   115    1
    81    57   116    1
    82    57   117    1
    83    58   118    1
    84    58   119    1
    85    58   120    1
    86    59   121    1
    87    59   122    1
    88    59   123    1
    89    60    61    2
    90     1    47    1
    91     1    62    1
    92     2    63    1
    93     3    64    1
    94     4    65    1
    95     5     6    1
    96     7     8    2
    97     9    78    1
    98    15    79    1
    99    18    80    1
   100    18    81    1
   101    19    82    1
   102    19    83    1
   103    20    23    1
   104    21    84    1
   105    21    85    1
   106    22    86    1
   107    22    87    1
   108    27    45    1
   109    28    34    1
   110    32    58    1
   111    33    46    2
   112    36    51    1
   113    36    66    1
   114    37    52    1
   115    37    67    1
   116    38    53    1
   117    38    68    1
   118    42    48    1
   119    42    72    1
   120    43    44    2
   121    60    73    1
   122    61    74    1
   123    39    69    1
   124    39    57    1
   125    40    70    1
   126    40    50    1
   127    41    71    1
   128    41    49    1
