@<TRIPOS>MOLECULE
*****
 123 128 0 0 0
SMALL
GASTEIGER

@<TRIPOS>ATOM
     1 C         2.116835   0.205436   3.53544 C.3        1 UNL1     0.0009
     2 C         2.493537   1.714764   4.543935 C.2        1 UNL1     -0.0787
     3 C         3.392898   2.788737   4.909693 C.2        1 UNL1     -0.0649
     4 C         3.089071   4.093273   5.945179 C.2        1 UNL1     -0.0542
     5 C         3.495875   5.397668   6.319535 C.2        1 UNL1     0.0115
     6 C         4.609197   6.466369   6.141445 C.3        1 UNL1     -0.0348
     7 C         2.47933   6.319342   7.152686 C.2        1 UNL1     0.2441
     8 O         2.579608   6.498819   8.358612 O.2        1 UNL1     -0.2702
     9 N         1.625376   7.1132   6.367381 N.am        1 UNL1     -0.2772
     10 C         0.480179   6.418977   6.051308 C.2        1 UNL1     0.1049
     11 C         0.562168   5.60055   5.018023 C.2        1 UNL1     0.0801
     12 C         -1.337166   5.02652   7.059105 C.ar        1 UNL1     0.0753
     13 C         -1.064359   4.067524   6.032211 C.ar        1 UNL1     0.0305
     14 C         -0.195363   4.38407   4.900975 C.2        1 UNL1     0.0924
     15 N         1.521714   5.481437   4.084422 N.pl3        1 UNL1     -0.3170
     16 C         1.048876   4.56277   3.083057 C.3        1 UNL1     0.1275
     17 N         0.087288   3.662713   3.819921 N.2        1 UNL1     -0.2557
     18 C         0.206376   5.36455   2.095614 C.3        1 UNL1     0.0016
     19 C         1.049965   6.506514   1.551679 C.3        1 UNL1     0.0026
     20 N         2.228901   5.949416   0.903004 N.3        1 UNL1     -0.3018
     21 C         3.071057   5.110502   1.758203 C.3        1 UNL1     0.0026
     22 C         2.20472   3.967407   2.289888 C.3        1 UNL1     0.0016
     23 C         2.941101   6.920867   0.096966 C.3        1 UNL1     0.0012
     24 C         4.08332   6.244536   -0.677418 C.3        1 UNL1     -0.0339
     25 C         5.367337   7.089376   -0.637388 C.3        1 UNL1     -0.0615
     26 C         4.318909   4.843677   -0.139951 C.3        1 UNL1     -0.0615
     27 C         -2.259657   4.760667   8.068288 C.ar        1 UNL1     0.1347
     28 C         -2.997173   3.591916   8.132646 C.ar        1 UNL1     0.0342
     29 C         -2.676366   2.642525   7.139215 C.ar        1 UNL1     0.1435
     30 C         -1.728535   2.880474   6.143114 C.ar        1 UNL1     0.0774
     31 O         -3.383942   1.499986   7.001574 O.3        1 UNL1     -0.4436
     32 C         -3.099273   1.055726   5.666482 C.3        1 UNL1     0.3143
     33 C         -1.773553   1.697152   5.309754 C.2        1 UNL1     0.2504
     34 C         -4.175981   3.341575   9.031444 C.3        1 UNL1     -0.0327
     35 O         -2.875752   -0.35837   5.726658 O.2        1 UNL1     -0.4528
     36 C         -3.987479   -1.731553   2.367116 C.3        1 UNL1     0.0854
     37 C         -3.491892   -1.346698   0.920118 C.3        1 UNL1     0.0236
     38 C         -2.964994   -2.577015   0.036691 C.3        1 UNL1     0.1131
     39 C         -1.891905   -3.572057   0.637225 C.3        1 UNL1     0.0200
     40 C         -0.582572   -2.988411   1.490127 C.3        1 UNL1     0.0661
     41 C         0.46054   -1.749878   0.984595 C.3        1 UNL1     0.0091
     42 C         1.373781   -0.491657   1.958388 C.3        1 UNL1     0.0661
     43 C         -0.671206   6.34924   6.963339 C.2        1 UNL1     0.2131
     44 O         -1.089535   7.354456   7.508573 O.2        1 UNL1     -0.2851
     45 O         -2.433041   5.72884   9.05521 O.3        1 UNL1     -0.5056
     46 O         -0.93356   1.307404   4.529779 O.2        1 UNL1     -0.2836
     47 C         2.902571   -1.017383   4.080705 C.3        1 UNL1     -0.0566
     48 O         2.660136   -0.715756   1.255404 O.3        1 UNL1     -0.3909
     49 C         -0.168831   -1.029634   -0.187 C.3        1 UNL1     -0.0577
     50 O         -0.908862   -2.818355   2.854802 O.3        1 UNL1     -0.3910
     51 O         -3.747486   -3.061956   2.766943 O.3        1 UNL1     -0.3753
     52 C         -2.793775   0.052249   0.897121 C.3        1 UNL1     -0.0564
     53 O         -2.834528   -2.255515   -1.423426 O.3        1 UNL1     -0.4608
     54 C         -3.137781   -3.105257   -2.454885 C.2        1 UNL1     0.3042
     55 O         -4.104723   -3.044103   -3.213252 O.2        1 UNL1     -0.2512
     56 C         -2.110063   -4.179379   -2.67115 C.3        1 UNL1     0.0332
     57 C         -2.681476   -4.822148   1.247164 C.3        1 UNL1     -0.0567
     58 C         -4.202094   1.653535   4.762081 C.3        1 UNL1     0.0210
     59 C         -2.973014   -3.83307   1.849642 C.3        1 UNL1     0.0372
     60 C         -3.479685   -0.856942   3.459069 C.2        1 UNL1     -0.0208
     61 C         -2.983369   -1.169512   4.656865 C.2        1 UNL1     0.0882
     62 H         1.122335   0.169189   3.996275 H        1 UNL1     0.0365
     63 H         1.606992   1.761219   5.179819 H        1 UNL1     0.0576
     64 H         4.343025   2.940795   4.392735 H        1 UNL1     0.0615
     65 H         2.170493   3.805815   6.463895 H        1 UNL1     0.0622
     66 H         -5.075018   -1.575344   2.337039 H        1 UNL1     0.0645
     67 H         -4.416989   -1.071951   0.384144 H        1 UNL1     0.0362
     68 H         -3.894855   -3.161195   -0.038245 H        1 UNL1     0.0741
     69 H         -1.424096   -4.111393   -0.175598 H        1 UNL1     0.0359
     70 H         0.070838   -3.881583   1.471178 H        1 UNL1     0.0600
     71 H         1.241014   -2.349774   0.476714 H        1 UNL1     0.0348
     72 H         1.111202   -1.291136   2.666344 H        1 UNL1     0.0602
     73 H         -3.677622   0.157178   3.21488 H        1 UNL1     0.0628
     74 H         -2.698747   -2.176838   4.962678 H        1 UNL1     0.1022
     75 H         5.610619   6.032347   6.377693 H        1 UNL1     0.0279
     76 H         4.753251   6.853849   5.135375 H        1 UNL1     0.0279
     77 H         4.54364   7.276348   6.882617 H        1 UNL1     0.0279
     78 H         2.089039   7.353307   5.493629 H        1 UNL1     0.1553
     79 H         2.202449   6.192979   3.891443 H        1 UNL1     0.1484
     80 H         -0.132795   4.699275   1.292408 H        1 UNL1     0.0317
     81 H         -0.694703   5.757321   2.578769 H        1 UNL1     0.0317
     82 H         1.331934   7.217008   2.342631 H        1 UNL1     0.0428
     83 H         0.429463   7.066233   0.851149 H        1 UNL1     0.0428
     84 H         3.904729   4.640495   1.227264 H        1 UNL1     0.0428
     85 H         3.555954   5.693982   2.553025 H        1 UNL1     0.0428
     86 H         2.879981   3.304962   2.798981 H        1 UNL1     0.0317
     87 H         1.833378   3.359475   1.455849 H        1 UNL1     0.0317
     88 H         2.23426   7.348876   -0.625861 H        1 UNL1     0.0429
     89 H         3.315491   7.750412   0.710531 H        1 UNL1     0.0429
     90 H         3.781681   6.117072   -1.72383 H        1 UNL1     0.0308
     91 H         6.142768   6.606166   -0.035461 H        1 UNL1     0.0233
     92 H         5.750091   7.258496   -1.646599 H        1 UNL1     0.0233
     93 H         5.200386   8.082591   -0.203237 H        1 UNL1     0.0233
     94 H         4.868357   4.889713   0.806528 H        1 UNL1     0.0233
     95 H         3.361512   4.35033   0.049685 H        1 UNL1     0.0233
     96 H         4.894883   4.237484   -0.844759 H        1 UNL1     0.0233
     97 H         -4.048803   2.444391   9.629874 H        1 UNL1     0.0280
     98 H         -4.332497   4.159952   9.746299 H        1 UNL1     0.0280
     99 H         -5.086654   3.223954   8.421579 H        1 UNL1     0.0280
     100 H         -3.235008   5.652761   9.541711 H        1 UNL1     0.2922
     101 H         3.771668   -0.675309   4.64223 H        1 UNL1     0.0236
     102 H         3.172538   -1.733756   3.30552 H        1 UNL1     0.0236
     103 H         2.31116   -1.599152   4.807321 H        1 UNL1     0.0236
     104 H         2.45279   -0.971379   0.335277 H        1 UNL1     0.2098
     105 H         0.272392   -1.269398   -1.151182 H        1 UNL1     0.0234
     106 H         -1.254787   -1.10669   -0.238852 H        1 UNL1     0.0234
     107 H         0.0   0.0   0.0 H        1 UNL1     0.0234
     108 H         -0.130289   -2.422979   3.292146 H        1 UNL1     0.2098
     109 H         -2.862046   0.535073   -0.08773 H        1 UNL1     0.0234
     110 H         -3.171253   0.734332   1.666548 H        1 UNL1     0.0234
     111 H         -1.720471   -0.027406   1.11534 H        1 UNL1     0.0234
     112 H         -1.40143   -4.189709   -1.837436 H        1 UNL1     0.0342
     113 H         -2.564631   -5.159181   -2.809715 H        1 UNL1     0.0342
     114 H         -1.550499   -3.939676   -3.585805 H        1 UNL1     0.0342
     115 H         -3.704946   -4.890363   0.85341 H        1 UNL1     0.0234
     116 H         -2.196202   -5.783756   1.068644 H        1 UNL1     0.0234
     117 H         -2.875192   -4.734274   2.330074 H        1 UNL1     0.0234
     118 H         -4.014643   2.715839   4.526758 H        1 UNL1     0.0309
     119 H         -4.339682   1.098777   3.828531 H        1 UNL1     0.0309
     120 H         -5.182281   1.672294   5.250945 H        1 UNL1     0.0309
     121 H         -2.894645   -4.842775   2.251775 H        1 UNL1     0.0524
     122 H         -3.449966   -3.906728   0.858114 H        1 UNL1     0.0524
     123 H         -1.984407   -3.397924   1.733897 H        1 UNL1     0.0524
@<TRIPOS>BOND
     1     1     2    1
     2     1    42    1
     3     2     3    2
     4     3     4    1
     5     4     5    2
     6     5     7    1
     7     6    75    1
     8     6    76    1
     9     6    77    1
    10     7     9   am
    11     9    10    1
    12    10    11    2
    13    10    43    1
    14    11    14    1
    15    11    15    1
    16    12    13   ar
    17    12    27   ar
    18    12    43    1
    19    13    14    1
    20    13    30   ar
    21    14    17    2
    22    15    16    1
    23    16    17    1
    24    16    18    1
    25    16    22    1
    26    18    19    1
    27    19    20    1
    28    20    21    1
    29    21    22    1
    30    23    24    1
    31    23    88    1
    32    23    89    1
    33    24    25    1
    34    24    26    1
    35    24    90    1
    36    25    91    1
    37    25    92    1
    38    25    93    1
    39    26    94    1
    40    26    95    1
    41    26    96    1
    42    27    28   ar
    43    28    29   ar
    44    29    30   ar
    45    29    31    1
    46    30    33    1
    47    31    32    1
    48    32    33    1
    49    32    35    1
    50    34    97    1
    51    34    98    1
    52    34    99    1
    53    35    61    1
    54    36    37    1
    55    36    60    1
    56    37    38    1
    57    38    39    1
    58    39    40    1
    59    40    41    1
    60    41    42    1
    61    45   100    1
    62    47   101    1
    63    47   102    1
    64    47   103    1
    65    48   104    1
    66    49   105    1
    67    49   106    1
    68    49   107    1
    69    50   108    1
    70    51    59    1
    71    52   109    1
    72    52   110    1
    73    52   111    1
    74    53    54    1
    75    54    55    2
    76    54    56    1
    77    56   112    1
    78    56   113    1
    79    56   114    1
    80    57   115    1
    81    57   116    1
    82    57   117    1
    83    58   118    1
    84    58   119    1
    85    58   120    1
    86    59   121    1
    87    59   122    1
    88    59   123    1
    89    60    61    2
    90     1    47    1
    91     1    62    1
    92     2    63    1
    93     3    64    1
    94     4    65    1
    95     5     6    1
    96     7     8    2
    97     9    78    1
    98    15    79    1
    99    18    80    1
   100    18    81    1
   101    19    82    1
   102    19    83    1
   103    20    23    1
   104    21    84    1
   105    21    85    1
   106    22    86    1
   107    22    87    1
   108    27    45    1
   109    28    34    1
   110    32    58    1
   111    33    46    2
   112    36    51    1
   113    36    66    1
   114    37    52    1
   115    37    67    1
   116    38    53    1
   117    38    68    1
   118    42    48    1
   119    42    72    1
   120    43    44    2
   121    60    73    1
   122    61    74    1
   123    39    69    1
   124    39    57    1
   125    40    70    1
   126    40    50    1
   127    41    71    1
   128    41    49    1
