@<TRIPOS>MOLECULE
*****
 123 128 0 0 0
SMALL
GASTEIGER

@<TRIPOS>ATOM
     1 C         3.327893   -1.923919   -3.903258 C.3        1 UNL1     0.0009
     2 C         3.729837   -1.925305   -5.713085 C.2        1 UNL1     -0.0787
     3 C         3.686567   -2.569616   -7.008862 C.2        1 UNL1     -0.0649
     4 C         4.187657   -1.943116   -8.499756 C.2        1 UNL1     -0.0542
     5 C         4.070581   -2.060206   -9.906761 C.2        1 UNL1     0.0115
     6 C         3.52105   -2.954669   -11.051869 C.3        1 UNL1     -0.0348
     7 C         4.520326   -0.825726   -10.829136 C.2        1 UNL1     0.2441
     8 O         5.582315   -0.80063   -11.435828 O.2        1 UNL1     -0.2702
     9 N         3.504057   0.106344   -11.102259 N.am        1 UNL1     -0.2772
     10 C         3.458251   1.068554   -10.119723 C.2        1 UNL1     0.1049
     11 C         2.785695   0.753666   -9.027598 C.2        1 UNL1     0.0801
     12 C         4.899156   2.649557   -8.822976 C.ar        1 UNL1     0.0753
     13 C         4.282612   2.121167   -7.644297 C.ar        1 UNL1     0.0305
     14 C         3.11203   1.249764   -7.718106 C.2        1 UNL1     0.0924
     15 N         1.955322   -0.276484   -8.79138 N.pl3        1 UNL1     -0.3170
     16 C         1.349006   -0.065776   -7.503655 C.3        1 UNL1     0.1275
     17 N         2.359947   0.753948   -6.739605 N.2        1 UNL1     -0.2557
     18 C         0.14111   0.841825   -7.71567 C.3        1 UNL1     0.0016
     19 C         -0.775993   0.198658   -8.743701 C.3        1 UNL1     0.0026
     20 N         -1.183943   -1.11033   -8.252625 N.3        1 UNL1     -0.3018
     21 C         -0.08628   -2.034494   -7.960348 C.3        1 UNL1     0.0026
     22 C         0.819811   -1.370191   -6.922275 C.3        1 UNL1     0.0016
     23 C         -2.28474   -1.677295   -9.00591 C.3        1 UNL1     0.0012
     24 C         -1.992181   -1.619199   -10.513488 C.3        1 UNL1     -0.0339
     25 C         -1.986324   -3.023424   -11.139728 C.3        1 UNL1     -0.0615
     26 C         -2.989307   -0.703966   -11.202594 C.3        1 UNL1     -0.0615
     27 C         5.937686   3.574199   -8.741665 C.ar        1 UNL1     0.1347
     28 C         6.416358   4.073278   -7.543398 C.ar        1 UNL1     0.0342
     29 C         5.82758   3.50225   -6.395168 C.ar        1 UNL1     0.1435
     30 C         4.811216   2.548357   -6.460827 C.ar        1 UNL1     0.0774
     31 O         6.108198   3.962341   -5.156388 O.3        1 UNL1     -0.4436
     32 C         5.019811   3.499783   -4.342554 C.3        1 UNL1     0.3143
     33 C         4.455946   2.301454   -5.078949 C.2        1 UNL1     0.2504
     34 C         7.346527   5.243582   -7.384417 C.3        1 UNL1     -0.0327
     35 O         5.581243   3.010795   -3.118243 O.2        1 UNL1     -0.4528
     36 C         2.935708   3.585457   -0.457605 C.3        1 UNL1     0.0854
     37 C         1.446212   3.069472   -0.405805 C.3        1 UNL1     0.0236
     38 C         1.060366   2.250319   0.917772 C.3        1 UNL1     0.1131
     39 C         1.97575   1.05127   1.393823 C.3        1 UNL1     0.0200
     40 C         2.562266   -0.053667   0.290397 C.3        1 UNL1     0.0661
     41 C         1.646295   -0.870435   -0.880713 C.3        1 UNL1     0.0091
     42 C         2.105013   -1.447995   -2.560417 C.3        1 UNL1     0.0661
     43 C         4.336191   2.24809   -10.136047 C.2        1 UNL1     0.2131
     44 O         4.486535   2.892537   -11.158213 O.2        1 UNL1     -0.2851
     45 O         6.513513   4.004191   -9.935385 O.3        1 UNL1     -0.5056
     46 O         3.865916   1.34692   -4.624433 O.2        1 UNL1     -0.2836
     47 C         4.273387   -2.89018   -3.140132 C.3        1 UNL1     -0.0566
     48 O         1.527196   -2.80134   -2.376837 O.3        1 UNL1     -0.3909
     49 C         0.29533   -0.200646   -0.998069 C.3        1 UNL1     -0.0577
     50 O         3.776342   0.398495   -0.274662 O.3        1 UNL1     -0.3910
     51 O         3.784418   3.121491   0.567997 O.3        1 UNL1     -0.3753
     52 C         0.923926   2.656688   -1.820647 C.3        1 UNL1     -0.0564
     53 O         -0.418343   2.078228   1.107847 O.3        1 UNL1     -0.4608
     54 C         -1.030719   0.959286   1.608742 C.2        1 UNL1     0.3042
     55 O         -0.925257   0.494692   2.743145 O.2        1 UNL1     -0.2512
     56 C         -1.965998   0.299169   0.636008 C.3        1 UNL1     0.0332
     57 C         2.993089   1.625421   2.486319 C.3        1 UNL1     -0.0567
     58 C         3.962662   4.628483   -4.343245 C.3        1 UNL1     0.0210
     59 C         5.088194   2.733373   0.137419 C.3        1 UNL1     0.0372
     60 C         3.642339   3.338628   -1.744038 C.2        1 UNL1     -0.0208
     61 C         4.872192   2.880122   -1.980632 C.2        1 UNL1     0.0882
     62 H         3.772307   -0.924386   -3.824889 H        1 UNL1     0.0365
     63 H         4.308057   -1.002485   -5.793924 H        1 UNL1     0.0576
     64 H         3.148389   -3.507352   -7.164175 H        1 UNL1     0.0615
     65 H         4.775842   -1.062419   -8.227921 H        1 UNL1     0.0622
     66 H         2.852952   4.677441   -0.36397 H        1 UNL1     0.0645
     67 H         0.848436   3.988536   -0.277183 H        1 UNL1     0.0362
     68 H         1.200198   3.040926   1.670706 H        1 UNL1     0.0741
     69 H         1.408913   0.429341   2.073756 H        1 UNL1     0.0359
     70 H         2.863133   -0.86776   0.977268 H        1 UNL1     0.0600
     71 H         1.385564   -1.787648   -0.317068 H        1 UNL1     0.0348
     72 H         3.052253   -1.294622   -2.023268 H        1 UNL1     0.0602
     73 H         3.051996   3.711403   -2.543902 H        1 UNL1     0.0628
     74 H         5.517565   2.428385   -1.226534 H        1 UNL1     0.1022
     75 H         4.027214   -2.710941   -12.016975 H        1 UNL1     0.0279
     76 H         3.696485   -4.024081   -10.958872 H        1 UNL1     0.0279
     77 H         2.471307   -2.735504   -11.296224 H        1 UNL1     0.0279
     78 H         2.601707   -0.364554   -11.112167 H        1 UNL1     0.1553
     79 H         1.520018   -0.81827   -9.515197 H        1 UNL1     0.1484
     80 H         -0.370859   0.985524   -6.756501 H        1 UNL1     0.0317
     81 H         0.452916   1.834962   -8.056414 H        1 UNL1     0.0317
     82 H         -0.291571   0.118804   -9.728013 H        1 UNL1     0.0428
     83 H         -1.629645   0.863081   -8.881071 H        1 UNL1     0.0428
     84 H         -0.415032   -2.980199   -7.518334 H        1 UNL1     0.0428
     85 H         0.44694   -2.337249   -8.872122 H        1 UNL1     0.0428
     86 H         1.531335   -2.12216   -6.635456 H        1 UNL1     0.0317
     87 H         0.258584   -1.18614   -5.998021 H        1 UNL1     0.0317
     88 H         -2.394137   -2.729245   -8.711413 H        1 UNL1     0.0429
     89 H         -3.231556   -1.176212   -8.76668 H        1 UNL1     0.0429
     90 H         -1.007893   -1.162502   -10.671026 H        1 UNL1     0.0308
     91 H         -2.665329   -3.698097   -10.609756 H        1 UNL1     0.0233
     92 H         -2.275083   -2.978128   -12.192426 H        1 UNL1     0.0233
     93 H         -0.992998   -3.487664   -11.114821 H        1 UNL1     0.0233
     94 H         -2.567178   0.300945   -11.311201 H        1 UNL1     0.0233
     95 H         -3.216316   -1.084138   -12.202543 H        1 UNL1     0.0233
     96 H         -3.920401   -0.628071   -10.634022 H        1 UNL1     0.0233
     97 H         8.379299   4.973122   -7.583072 H        1 UNL1     0.0280
     98 H         7.109756   6.05806   -8.081426 H        1 UNL1     0.0280
     99 H         7.282313   5.628652   -6.353547 H        1 UNL1     0.0280
     100 H         5.948601   4.527444   -10.476406 H        1 UNL1     0.2922
     101 H         3.868655   -3.901553   -3.171336 H        1 UNL1     0.0236
     102 H         4.486539   -2.566193   -2.122005 H        1 UNL1     0.0236
     103 H         5.261894   -2.969317   -3.622609 H        1 UNL1     0.0236
     104 H         1.713783   -3.07968   -1.45886 H        1 UNL1     0.2098
     105 H         0.307282   0.743052   -1.537609 H        1 UNL1     0.0234
     106 H         -0.499766   -0.842521   -1.377205 H        1 UNL1     0.0234
     107 H         -0.0   0.0   0.0 H        1 UNL1     0.0234
     108 H         3.95441   -0.154146   -1.059931 H        1 UNL1     0.2098
     109 H         1.02396   3.468816   -2.554235 H        1 UNL1     0.0234
     110 H         1.402655   1.751229   -2.208856 H        1 UNL1     0.0234
     111 H         -0.144752   2.404808   -1.799946 H        1 UNL1     0.0234
     112 H         -1.862726   -0.788301   0.699953 H        1 UNL1     0.0342
     113 H         -3.000035   0.603245   0.791406 H        1 UNL1     0.0342
     114 H         -1.677832   0.605724   -0.378955 H        1 UNL1     0.0342
     115 H         3.23524   0.876106   3.252528 H        1 UNL1     0.0234
     116 H         3.935827   1.98515   2.069319 H        1 UNL1     0.0234
     117 H         2.564568   2.432358   3.105322 H        1 UNL1     0.0234
     118 H         3.883245   5.122752   -3.359173 H        1 UNL1     0.0309
     119 H         4.144434   5.386904   -5.111333 H        1 UNL1     0.0309
     120 H         2.948413   4.254356   -4.520547 H        1 UNL1     0.0309
     121 H         5.60759   3.632531   -0.19288 H        1 UNL1     0.0524
     122 H         5.682333   2.287194   0.952256 H        1 UNL1     0.0524
     123 H         5.017596   2.020059   -0.678849 H        1 UNL1     0.0524
@<TRIPOS>BOND
     1     1     2    1
     2     1    42    1
     3     2     3    2
     4     3     4    1
     5     4     5    2
     6     5     7    1
     7     6    75    1
     8     6    76    1
     9     6    77    1
    10     7     9   am
    11     9    10    1
    12    10    11    2
    13    10    43    1
    14    11    14    1
    15    11    15    1
    16    12    13   ar
    17    12    27   ar
    18    12    43    1
    19    13    14    1
    20    13    30   ar
    21    14    17    2
    22    15    16    1
    23    16    17    1
    24    16    18    1
    25    16    22    1
    26    18    19    1
    27    19    20    1
    28    20    21    1
    29    21    22    1
    30    23    24    1
    31    23    88    1
    32    23    89    1
    33    24    25    1
    34    24    26    1
    35    24    90    1
    36    25    91    1
    37    25    92    1
    38    25    93    1
    39    26    94    1
    40    26    95    1
    41    26    96    1
    42    27    28   ar
    43    28    29   ar
    44    29    30   ar
    45    29    31    1
    46    30    33    1
    47    31    32    1
    48    32    33    1
    49    32    35    1
    50    34    97    1
    51    34    98    1
    52    34    99    1
    53    35    61    1
    54    36    37    1
    55    36    60    1
    56    37    38    1
    57    38    39    1
    58    39    40    1
    59    40    41    1
    60    41    42    1
    61    45   100    1
    62    47   101    1
    63    47   102    1
    64    47   103    1
    65    48   104    1
    66    49   105    1
    67    49   106    1
    68    49   107    1
    69    50   108    1
    70    51    59    1
    71    52   109    1
    72    52   110    1
    73    52   111    1
    74    53    54    1
    75    54    55    2
    76    54    56    1
    77    56   112    1
    78    56   113    1
    79    56   114    1
    80    57   115    1
    81    57   116    1
    82    57   117    1
    83    58   118    1
    84    58   119    1
    85    58   120    1
    86    59   121    1
    87    59   122    1
    88    59   123    1
    89    60    61    2
    90     1    47    1
    91     1    62    1
    92     2    63    1
    93     3    64    1
    94     4    65    1
    95     5     6    1
    96     7     8    2
    97     9    78    1
    98    15    79    1
    99    18    80    1
   100    18    81    1
   101    19    82    1
   102    19    83    1
   103    20    23    1
   104    21    84    1
   105    21    85    1
   106    22    86    1
   107    22    87    1
   108    27    45    1
   109    28    34    1
   110    32    58    1
   111    33    46    2
   112    36    51    1
   113    36    66    1
   114    37    52    1
   115    37    67    1
   116    38    53    1
   117    38    68    1
   118    42    48    1
   119    42    72    1
   120    43    44    2
   121    60    73    1
   122    61    74    1
   123    39    69    1
   124    39    57    1
   125    40    70    1
   126    40    50    1
   127    41    71    1
   128    41    49    1
