@<TRIPOS>MOLECULE
*****
 123 128 0 0 0
SMALL
GASTEIGER

@<TRIPOS>ATOM
     1 C         2.381707   -1.785125   4.59919 C.3        1 UNL1     0.0009
     2 C         3.951343   -2.388922   5.379388 C.2        1 UNL1     -0.0787
     3 C         4.773124   -3.475153   5.870127 C.2        1 UNL1     -0.0649
     4 C         6.365333   -3.399735   6.440688 C.2        1 UNL1     -0.0542
     5 C         7.542049   -4.144641   6.700562 C.2        1 UNL1     0.0115
     6 C         8.125806   -5.581565   6.788886 C.3        1 UNL1     -0.0348
     7 C         8.933433   -3.363265   6.875168 C.2        1 UNL1     0.2441
     8 O         9.44465   -3.150251   7.965951 O.2        1 UNL1     -0.2702
     9 N         9.653906   -3.169923   5.68366 N.am        1 UNL1     -0.2772
     10 C         9.262662   -2.002144   5.070029 C.2        1 UNL1     0.1049
     11 C         8.175141   -2.072701   4.324012 C.2        1 UNL1     0.0801
     12 C         8.852791   0.426734   5.505793 C.ar        1 UNL1     0.0753
     13 C         7.584477   0.246836   4.867339 C.ar        1 UNL1     0.0305
     14 C         7.26119   -0.978173   4.139404 C.2        1 UNL1     0.0924
     15 N         7.493855   -3.146756   3.889519 N.pl3        1 UNL1     -0.3170
     16 C         6.488121   -2.68641   2.969283 C.3        1 UNL1     0.1275
     17 N         6.187657   -1.275447   3.412712 N.2        1 UNL1     -0.2557
     18 C         7.148965   -2.568085   1.599252 C.3        1 UNL1     0.0016
     19 C         7.763006   -3.911192   1.237857 C.3        1 UNL1     0.0026
     20 N         6.711323   -4.918602   1.227049 N.3        1 UNL1     -0.3018
     21 C         5.975536   -5.062773   2.484905 C.3        1 UNL1     0.0026
     22 C         5.363286   -3.703212   2.826428 C.3        1 UNL1     0.0016
     23 C         7.127528   -6.161728   0.608944 C.3        1 UNL1     0.0012
     24 C         7.296929   -5.97897   -0.907519 C.3        1 UNL1     -0.0339
     25 C         6.892674   -7.248137   -1.675536 C.3        1 UNL1     -0.0615
     26 C         6.510805   -4.76723   -1.377064 C.3        1 UNL1     -0.0615
     27 C         9.199217   1.641138   6.09344 C.ar        1 UNL1     0.1347
     28 C         8.379452   2.75538   6.071089 C.ar        1 UNL1     0.0342
     29 C         7.116272   2.540297   5.480088 C.ar        1 UNL1     0.1435
     30 C         6.741333   1.318709   4.919408 C.ar        1 UNL1     0.0774
     31 O         6.248035   3.556401   5.283362 O.3        1 UNL1     -0.4436
     32 C         5.344491   3.071948   4.27848 C.3        1 UNL1     0.3143
     33 C         5.4241   1.561436   4.369183 C.2        1 UNL1     0.2504
     34 C         8.780236   4.152689   6.454494 C.3        1 UNL1     -0.0327
     35 O         4.020642   3.444838   4.68051 O.2        1 UNL1     -0.4528
     36 C         2.051232   3.913668   1.469636 C.3        1 UNL1     0.0854
     37 C         1.799799   2.889864   0.29655 C.3        1 UNL1     0.0236
     38 C         0.25709   2.638401   -0.062 C.3        1 UNL1     0.1131
     39 C         -0.767203   2.276004   1.08768 C.3        1 UNL1     0.0200
     40 C         -0.355397   1.1731   2.269397 C.3        1 UNL1     0.0661
     41 C         0.299554   -0.369115   2.0044 C.3        1 UNL1     0.0091
     42 C         1.474513   -1.352442   3.013332 C.3        1 UNL1     0.0661
     43 C         9.822714   -0.694691   5.443205 C.2        1 UNL1     0.2131
     44 O         11.0242   -0.553954   5.58235 O.2        1 UNL1     -0.2851
     45 O         10.434192   1.718808   6.733943 O.3        1 UNL1     -0.5056
     46 O         4.581538   0.743413   4.074598 O.2        1 UNL1     -0.2836
     47 C         1.218387   -1.826339   5.626306 C.3        1 UNL1     -0.0566
     48 O         0.675157   -2.599079   2.935609 O.3        1 UNL1     -0.3909
     49 C         0.766608   -0.460862   0.568804 C.3        1 UNL1     -0.0577
     50 O         0.321921   1.809196   3.334453 O.3        1 UNL1     -0.3910
     51 O         0.90475   4.343924   2.168128 O.3        1 UNL1     -0.3753
     52 C         2.852005   1.733227   0.298225 C.3        1 UNL1     -0.0564
     53 O         0.051128   1.952497   -1.380879 O.3        1 UNL1     -0.4608
     54 C         -1.086236   1.291046   -1.764044 C.2        1 UNL1     0.3042
     55 O         -1.268337   0.074602   -1.794723 O.2        1 UNL1     -0.2512
     56 C         -2.22206   2.206236   -2.123271 C.3        1 UNL1     0.0332
     57 C         -1.474004   3.634359   1.549718 C.3        1 UNL1     -0.0567
     58 C         5.923307   3.521139   2.916596 C.3        1 UNL1     0.0210
     59 C         1.052481   4.39935   3.586214 C.3        1 UNL1     0.0372
     60 C         3.035372   3.467814   2.493279 C.2        1 UNL1     -0.0208
     61 C         2.983715   3.525052   3.824744 C.2        1 UNL1     0.0882
     62 H         2.784522   -0.765386   4.623352 H        1 UNL1     0.0365
     63 H         4.452213   -1.441419   5.588762 H        1 UNL1     0.0576
     64 H         4.470288   -4.518474   5.756641 H        1 UNL1     0.0615
     65 H         6.537185   -2.330757   6.593117 H        1 UNL1     0.0622
     66 H         2.501056   4.789049   0.98034 H        1 UNL1     0.0645
     67 H         2.150419   3.422928   -0.604265 H        1 UNL1     0.0362
     68 H         -0.022079   3.650271   -0.393217 H        1 UNL1     0.0741
     69 H         -1.646311   1.82943   0.642541 H        1 UNL1     0.0359
     70 H         -1.359294   0.945961   2.676408 H        1 UNL1     0.0600
     71 H         -0.630034   -0.970425   1.969048 H        1 UNL1     0.0348
     72 H         1.051333   -0.596905   3.691121 H        1 UNL1     0.0602
     73 H         3.932697   3.171461   2.009304 H        1 UNL1     0.0628
     74 H         2.086506   3.762326   4.397417 H        1 UNL1     0.1022
     75 H         7.454826   -6.240989   7.390533 H        1 UNL1     0.0279
     76 H         8.213216   -6.128097   5.852547 H        1 UNL1     0.0279
     77 H         9.056135   -5.627426   7.373768 H        1 UNL1     0.0279
     78 H         9.460954   -3.934023   5.039456 H        1 UNL1     0.1553
     79 H         7.876877   -4.073682   3.857332 H        1 UNL1     0.1484
     80 H         6.395198   -2.261468   0.864005 H        1 UNL1     0.0317
     81 H         7.918984   -1.789166   1.602201 H        1 UNL1     0.0317
     82 H         8.570509   -4.189397   1.931005 H        1 UNL1     0.0428
     83 H         8.23029   -3.803903   0.258477 H        1 UNL1     0.0428
     84 H         5.140476   -5.767789   2.426273 H        1 UNL1     0.0428
     85 H         6.610156   -5.466877   3.285701 H        1 UNL1     0.0428
     86 H         4.727114   -3.87694   3.674421 H        1 UNL1     0.0317
     87 H         4.661051   -3.40034   2.040151 H        1 UNL1     0.0317
     88 H         8.097129   -6.448091   1.036922 H        1 UNL1     0.0429
     89 H         6.424258   -6.973901   0.833797 H        1 UNL1     0.0429
     90 H         8.348062   -5.757679   -1.127432 H        1 UNL1     0.0308
     91 H         7.083143   -7.141837   -2.747695 H        1 UNL1     0.0233
     92 H         7.437033   -8.117345   -1.299026 H        1 UNL1     0.0233
     93 H         5.827157   -7.482527   -1.563426 H        1 UNL1     0.0233
     94 H         6.603039   -4.65467   -2.462725 H        1 UNL1     0.0233
     95 H         5.45081   -4.894811   -1.140216 H        1 UNL1     0.0233
     96 H         6.870559   -3.849867   -0.902732 H        1 UNL1     0.0233
     97 H         8.642575   4.854719   5.637528 H        1 UNL1     0.0280
     98 H         8.18113   4.540921   7.288524 H        1 UNL1     0.0280
     99 H         9.843441   4.165009   6.745251 H        1 UNL1     0.0280
     100 H         10.608508   1.015814   7.334806 H        1 UNL1     0.2922
     101 H         0.998968   -0.817067   5.973987 H        1 UNL1     0.0236
     102 H         1.400071   -2.513033   6.452397 H        1 UNL1     0.0236
     103 H         0.276706   -2.176619   5.171626 H        1 UNL1     0.0236
     104 H         0.048271   -2.594714   3.685253 H        1 UNL1     0.2098
     105 H         1.695247   0.065959   0.364108 H        1 UNL1     0.0234
     106 H         0.8105   -1.473483   0.168053 H        1 UNL1     0.0234
     107 H         0.0   0.0   -0.0 H        1 UNL1     0.0234
     108 H         0.735314   1.108656   3.874932 H        1 UNL1     0.2098
     109 H         3.743877   1.981369   -0.293976 H        1 UNL1     0.0234
     110 H         3.154434   1.427967   1.305745 H        1 UNL1     0.0234
     111 H         2.445352   0.815508   -0.147163 H        1 UNL1     0.0234
     112 H         -3.102034   1.616963   -2.398498 H        1 UNL1     0.0342
     113 H         -2.454847   2.904559   -1.320776 H        1 UNL1     0.0342
     114 H         -1.923354   2.795554   -3.001134 H        1 UNL1     0.0342
     115 H         -2.536325   3.482313   1.785398 H        1 UNL1     0.0234
     116 H         -1.008724   4.103554   2.418866 H        1 UNL1     0.0234
     117 H         -1.539566   4.39069   0.748714 H        1 UNL1     0.0234
     118 H         5.353804   4.360545   2.480626 H        1 UNL1     0.0309
     119 H         6.981721   3.795388   2.969035 H        1 UNL1     0.0309
     120 H         5.849721   2.741264   2.150772 H        1 UNL1     0.0309
     121 H         0.064321   4.267266   4.026045 H        1 UNL1     0.0524
     122 H         1.697878   3.592455   3.971466 H        1 UNL1     0.0524
     123 H         1.470086   5.357137   3.883442 H        1 UNL1     0.0524
@<TRIPOS>BOND
     1     1     2    1
     2     1    42    1
     3     2     3    2
     4     3     4    1
     5     4     5    2
     6     5     7    1
     7     6    75    1
     8     6    76    1
     9     6    77    1
    10     7     9   am
    11     9    10    1
    12    10    11    2
    13    10    43    1
    14    11    14    1
    15    11    15    1
    16    12    13   ar
    17    12    27   ar
    18    12    43    1
    19    13    14    1
    20    13    30   ar
    21    14    17    2
    22    15    16    1
    23    16    17    1
    24    16    18    1
    25    16    22    1
    26    18    19    1
    27    19    20    1
    28    20    21    1
    29    21    22    1
    30    23    24    1
    31    23    88    1
    32    23    89    1
    33    24    25    1
    34    24    26    1
    35    24    90    1
    36    25    91    1
    37    25    92    1
    38    25    93    1
    39    26    94    1
    40    26    95    1
    41    26    96    1
    42    27    28   ar
    43    28    29   ar
    44    29    30   ar
    45    29    31    1
    46    30    33    1
    47    31    32    1
    48    32    33    1
    49    32    35    1
    50    34    97    1
    51    34    98    1
    52    34    99    1
    53    35    61    1
    54    36    37    1
    55    36    60    1
    56    37    38    1
    57    38    39    1
    58    39    40    1
    59    40    41    1
    60    41    42    1
    61    45   100    1
    62    47   101    1
    63    47   102    1
    64    47   103    1
    65    48   104    1
    66    49   105    1
    67    49   106    1
    68    49   107    1
    69    50   108    1
    70    51    59    1
    71    52   109    1
    72    52   110    1
    73    52   111    1
    74    53    54    1
    75    54    55    2
    76    54    56    1
    77    56   112    1
    78    56   113    1
    79    56   114    1
    80    57   115    1
    81    57   116    1
    82    57   117    1
    83    58   118    1
    84    58   119    1
    85    58   120    1
    86    59   121    1
    87    59   122    1
    88    59   123    1
    89    60    61    2
    90     1    47    1
    91     1    62    1
    92     2    63    1
    93     3    64    1
    94     4    65    1
    95     5     6    1
    96     7     8    2
    97     9    78    1
    98    15    79    1
    99    18    80    1
   100    18    81    1
   101    19    82    1
   102    19    83    1
   103    20    23    1
   104    21    84    1
   105    21    85    1
   106    22    86    1
   107    22    87    1
   108    27    45    1
   109    28    34    1
   110    32    58    1
   111    33    46    2
   112    36    51    1
   113    36    66    1
   114    37    52    1
   115    37    67    1
   116    38    53    1
   117    38    68    1
   118    42    48    1
   119    42    72    1
   120    43    44    2
   121    60    73    1
   122    61    74    1
   123    39    69    1
   124    39    57    1
   125    40    70    1
   126    40    50    1
   127    41    71    1
   128    41    49    1
