@<TRIPOS>MOLECULE
*****
 123 128 0 0 0
SMALL
GASTEIGER

@<TRIPOS>ATOM
     1 C         5.009859   0.994387   1.980975 C.3        1 UNL1     0.0009
     2 C         6.753929   1.472583   1.572825 C.2        1 UNL1     -0.0787
     3 C         8.138863   1.108759   1.359199 C.2        1 UNL1     -0.0649
     4 C         9.405338   2.099781   0.829791 C.2        1 UNL1     -0.0542
     5 C         10.695551   2.122059   0.24504 C.2        1 UNL1     0.0115
     6 C         11.904358   1.237086   -0.165971 C.3        1 UNL1     -0.0348
     7 C         11.227503   3.487019   -0.41139 C.2        1 UNL1     0.2441
     8 O         12.029761   4.224374   0.144682 O.2        1 UNL1     -0.2702
     9 N         10.91347   3.647664   -1.772172 N.am        1 UNL1     -0.2772
     10 C         9.684373   4.249883   -1.913506 C.2        1 UNL1     0.1049
     11 C         8.633518   3.454058   -1.832345 C.2        1 UNL1     0.0801
     12 C         8.323584   6.191735   -1.116763 C.ar        1 UNL1     0.0753
     13 C         7.279717   5.249787   -0.849024 C.ar        1 UNL1     0.0305
     14 C         7.355172   3.869192   -1.321589 C.2        1 UNL1     0.0924
     15 N         8.563644   2.111837   -1.841805 N.pl3        1 UNL1     -0.3170
     16 C         7.173808   1.744612   -1.903099 C.3        1 UNL1     0.1275
     17 N         6.449254   2.897844   -1.252869 N.2        1 UNL1     -0.2557
     18 C         6.765715   1.762838   -3.373075 C.3        1 UNL1     0.0016
     19 C         7.693624   0.839909   -4.146883 C.3        1 UNL1     0.0026
     20 N         7.58915   -0.502021   -3.590703 N.3        1 UNL1     -0.3018
     21 C         7.902958   -0.610065   -2.164443 C.3        1 UNL1     0.0026
     22 C         6.956104   0.3216   -1.405917 C.3        1 UNL1     0.0016
     23 C         8.196731   -1.51129   -4.435018 C.3        1 UNL1     0.0012
     24 C         7.366103   -1.716911   -5.71155 C.3        1 UNL1     -0.0339
     25 C         7.407155   -3.180958   -6.179457 C.3        1 UNL1     -0.0615
     26 C         5.941133   -1.24128   -5.487908 C.3        1 UNL1     -0.0615
     27 C         8.191131   7.534023   -0.769148 C.ar        1 UNL1     0.1347
     28 C         7.050076   8.05762   -0.187865 C.ar        1 UNL1     0.0342
     29 C         6.055052   7.102723   0.110904 C.ar        1 UNL1     0.1435
     30 C         6.188548   5.74862   -0.198617 C.ar        1 UNL1     0.0774
     31 O         4.841991   7.471296   0.577427 O.3        1 UNL1     -0.4436
     32 C         3.992521   6.345842   0.307935 C.3        1 UNL1     0.3143
     33 C         4.928721   5.158885   0.203646 C.2        1 UNL1     0.2504
     34 C         6.737698   9.518367   -0.018347 C.3        1 UNL1     -0.0327
     35 O         3.181278   6.136451   1.470386 O.2        1 UNL1     -0.4528
     36 C         -0.077143   4.65108   0.211636 C.3        1 UNL1     0.0854
     37 C         -0.313595   3.34275   -0.636825 C.3        1 UNL1     0.0236
     38 C         -1.334838   2.290993   0.013262 C.3        1 UNL1     0.1131
     39 C         -1.139868   1.832523   1.514615 C.3        1 UNL1     0.0200
     40 C         0.379214   1.458371   2.093267 C.3        1 UNL1     0.0661
     41 C         1.496049   0.418013   1.353034 C.3        1 UNL1     0.0091
     42 C         3.330017   0.458786   1.335666 C.3        1 UNL1     0.0661
     43 C         9.515529   5.709587   -1.85775 C.2        1 UNL1     0.2131
     44 O         10.264198   6.442499   -2.478293 O.2        1 UNL1     -0.2851
     45 O         9.271932   8.375888   -1.023254 O.3        1 UNL1     -0.5056
     46 O         4.693498   3.991956   0.424554 O.2        1 UNL1     -0.2836
     47 C         4.872636   0.699862   3.499002 C.3        1 UNL1     -0.0566
     48 O         3.478643   -0.97973   1.663837 O.3        1 UNL1     -0.3909
     49 C         1.047204   0.150314   -0.066251 C.3        1 UNL1     -0.0577
     50 O         1.036664   2.618415   2.562075 O.3        1 UNL1     -0.3910
     51 O         -0.646066   4.660078   1.501472 O.3        1 UNL1     -0.3753
     52 C         0.984624   2.889485   -1.381222 C.3        1 UNL1     -0.0564
     53 O         -1.810386   1.242188   -0.949125 O.3        1 UNL1     -0.4608
     54 C         -2.037772   -0.073923   -0.642405 C.2        1 UNL1     0.3042
     55 O         -1.315163   -1.036181   -0.898793 O.2        1 UNL1     -0.2512
     56 C         -3.298362   -0.299284   0.142986 C.3        1 UNL1     0.0332
     57 C         -2.078653   2.752747   2.425683 C.3        1 UNL1     -0.0567
     58 C         3.354485   6.601205   -1.077427 C.3        1 UNL1     0.0210
     59 C         -0.955962   5.956363   2.010859 C.3        1 UNL1     0.0372
     60 C         1.348177   5.049896   0.368387 C.2        1 UNL1     -0.0208
     61 C         2.018021   5.458015   1.44704 C.2        1 UNL1     0.0882
     62 H         4.709865   2.039308   1.836561 H        1 UNL1     0.0365
     63 H         6.657213   2.558291   1.506835 H        1 UNL1     0.0576
     64 H         8.465093   0.066376   1.370061 H        1 UNL1     0.0615
     65 H         9.004605   3.111896   0.932352 H        1 UNL1     0.0622
     66 H         -0.550823   5.450297   -0.375669 H        1 UNL1     0.0645
     67 H         -0.886411   3.691674   -1.513576 H        1 UNL1     0.0362
     68 H         -2.251998   2.899544   0.010784 H        1 UNL1     0.0741
     69 H         -1.686583   0.912212   1.671269 H        1 UNL1     0.0359
     70 H         0.102716   0.906726   3.012124 H        1 UNL1     0.0600
     71 H         1.229357   -0.536053   1.848604 H        1 UNL1     0.0348
     72 H         3.021003   1.078047   2.190267 H        1 UNL1     0.0602
     73 H         1.805652   5.094478   -0.58868 H        1 UNL1     0.0628
     74 H         1.64222   5.390223   2.468516 H        1 UNL1     0.1022
     75 H         12.182321   0.543275   0.663726 H        1 UNL1     0.0279
     76 H         11.74556   0.555143   -0.998321 H        1 UNL1     0.0279
     77 H         12.832768   1.814452   -0.285989 H        1 UNL1     0.0279
     78 H         10.861168   2.735638   -2.221115 H        1 UNL1     0.1553
     79 H         9.298306   1.518242   -2.180699 H        1 UNL1     0.1484
     80 H         5.720234   1.442613   -3.457873 H        1 UNL1     0.0317
     81 H         6.816592   2.778161   -3.780731 H        1 UNL1     0.0317
     82 H         8.73371   1.197247   -4.125807 H        1 UNL1     0.0428
     83 H         7.386122   0.869289   -5.19265 H        1 UNL1     0.0428
     84 H         7.739871   -1.611468   -1.754068 H        1 UNL1     0.0428
     85 H         8.964187   -0.408751   -1.962987 H        1 UNL1     0.0428
     86 H         7.122578   0.11817   -0.364336 H        1 UNL1     0.0317
     87 H         5.916737   0.008205   -1.562755 H        1 UNL1     0.0317
     88 H         9.196682   -1.160118   -4.721496 H        1 UNL1     0.0429
     89 H         8.330765   -2.456445   -3.89327 H        1 UNL1     0.0429
     90 H         7.771423   -1.083748   -6.509694 H        1 UNL1     0.0308
     91 H         7.243607   -3.869833   -5.345307 H        1 UNL1     0.0233
     92 H         6.651833   -3.362291   -6.947711 H        1 UNL1     0.0233
     93 H         8.370996   -3.448854   -6.628987 H        1 UNL1     0.0233
     94 H         5.26654   -1.71799   -6.207288 H        1 UNL1     0.0233
     95 H         5.609437   -1.514734   -4.482343 H        1 UNL1     0.0233
     96 H         5.859566   -0.1569   -5.603821 H        1 UNL1     0.0233
     97 H         5.730731   9.679036   0.355061 H        1 UNL1     0.0280
     98 H         7.407068   10.00359   0.703982 H        1 UNL1     0.0280
     99 H         6.831988   10.031056   -0.989611 H        1 UNL1     0.0280
     100 H         9.050045   9.173928   -1.469932 H        1 UNL1     0.2922
     101 H         4.368357   1.531451   3.990753 H        1 UNL1     0.0236
     102 H         5.821596   0.457235   3.976066 H        1 UNL1     0.0236
     103 H         4.228279   -0.173435   3.694833 H        1 UNL1     0.0236
     104 H         2.783413   -1.20785   2.311593 H        1 UNL1     0.2098
     105 H         1.222348   0.972686   -0.755338 H        1 UNL1     0.0234
     106 H         1.414455   -0.783612   -0.491499 H        1 UNL1     0.0234
     107 H         0.0   -0.0   0.0 H        1 UNL1     0.0234
     108 H         1.980513   2.39272   2.671522 H        1 UNL1     0.2098
     109 H         1.410046   3.691019   -2.001118 H        1 UNL1     0.0234
     110 H         1.754467   2.500733   -0.705976 H        1 UNL1     0.0234
     111 H         0.787169   2.055627   -2.067981 H        1 UNL1     0.0234
     112 H         -3.408923   -1.363561   0.371979 H        1 UNL1     0.0342
     113 H         -3.327886   0.30089   1.051151 H        1 UNL1     0.0342
     114 H         -4.15046   0.000958   -0.482271 H        1 UNL1     0.0342
     115 H         -2.463464   2.206499   3.297876 H        1 UNL1     0.0234
     116 H         -1.590842   3.657467   2.793884 H        1 UNL1     0.0234
     117 H         -3.018215   3.050435   1.929149 H        1 UNL1     0.0234
     118 H         2.293889   6.897354   -0.997183 H        1 UNL1     0.0309
     119 H         3.892129   7.351028   -1.666414 H        1 UNL1     0.0309
     120 H         3.318398   5.698127   -1.696503 H        1 UNL1     0.0309
     121 H         -0.936964   5.896324   3.098697 H        1 UNL1     0.0524
     122 H         -0.214041   6.713571   1.70717 H        1 UNL1     0.0524
     123 H         -1.938803   6.269114   1.669826 H        1 UNL1     0.0524
@<TRIPOS>BOND
     1     1     2    1
     2     1    42    1
     3     2     3    2
     4     3     4    1
     5     4     5    2
     6     5     7    1
     7     6    75    1
     8     6    76    1
     9     6    77    1
    10     7     9   am
    11     9    10    1
    12    10    11    2
    13    10    43    1
    14    11    14    1
    15    11    15    1
    16    12    13   ar
    17    12    27   ar
    18    12    43    1
    19    13    14    1
    20    13    30   ar
    21    14    17    2
    22    15    16    1
    23    16    17    1
    24    16    18    1
    25    16    22    1
    26    18    19    1
    27    19    20    1
    28    20    21    1
    29    21    22    1
    30    23    24    1
    31    23    88    1
    32    23    89    1
    33    24    25    1
    34    24    26    1
    35    24    90    1
    36    25    91    1
    37    25    92    1
    38    25    93    1
    39    26    94    1
    40    26    95    1
    41    26    96    1
    42    27    28   ar
    43    28    29   ar
    44    29    30   ar
    45    29    31    1
    46    30    33    1
    47    31    32    1
    48    32    33    1
    49    32    35    1
    50    34    97    1
    51    34    98    1
    52    34    99    1
    53    35    61    1
    54    36    37    1
    55    36    60    1
    56    37    38    1
    57    38    39    1
    58    39    40    1
    59    40    41    1
    60    41    42    1
    61    45   100    1
    62    47   101    1
    63    47   102    1
    64    47   103    1
    65    48   104    1
    66    49   105    1
    67    49   106    1
    68    49   107    1
    69    50   108    1
    70    51    59    1
    71    52   109    1
    72    52   110    1
    73    52   111    1
    74    53    54    1
    75    54    55    2
    76    54    56    1
    77    56   112    1
    78    56   113    1
    79    56   114    1
    80    57   115    1
    81    57   116    1
    82    57   117    1
    83    58   118    1
    84    58   119    1
    85    58   120    1
    86    59   121    1
    87    59   122    1
    88    59   123    1
    89    60    61    2
    90     1    47    1
    91     1    62    1
    92     2    63    1
    93     3    64    1
    94     4    65    1
    95     5     6    1
    96     7     8    2
    97     9    78    1
    98    15    79    1
    99    18    80    1
   100    18    81    1
   101    19    82    1
   102    19    83    1
   103    20    23    1
   104    21    84    1
   105    21    85    1
   106    22    86    1
   107    22    87    1
   108    27    45    1
   109    28    34    1
   110    32    58    1
   111    33    46    2
   112    36    51    1
   113    36    66    1
   114    37    52    1
   115    37    67    1
   116    38    53    1
   117    38    68    1
   118    42    48    1
   119    42    72    1
   120    43    44    2
   121    60    73    1
   122    61    74    1
   123    39    69    1
   124    39    57    1
   125    40    70    1
   126    40    50    1
   127    41    71    1
   128    41    49    1
