@<TRIPOS>MOLECULE
*****
 123 128 0 0 0
SMALL
GASTEIGER

@<TRIPOS>ATOM
     1 C         -5.054276   1.661959   -1.199793 C.3        1 UNL1     0.0009
     2 C         -6.348434   1.727227   -2.525664 C.2        1 UNL1     -0.0787
     3 C         -7.106772   2.476988   -3.504862 C.2        1 UNL1     -0.0649
     4 C         -8.209807   1.883234   -4.643777 C.2        1 UNL1     -0.0542
     5 C         -8.878103   2.153532   -5.863366 C.2        1 UNL1     0.0115
     6 C         -9.177264   3.25765   -6.914436 C.3        1 UNL1     -0.0348
     7 C         -9.535861   0.934969   -6.67543 C.2        1 UNL1     0.2441
     8 O         -10.736293   0.699622   -6.665359 O.2        1 UNL1     -0.2702
     9 N         -8.680852   0.316486   -7.604187 N.am        1 UNL1     -0.2772
     10 C         -7.961716   -0.688786   -6.999544 C.2        1 UNL1     0.1049
     11 C         -6.875791   -0.316032   -6.346824 C.2        1 UNL1     0.0801
     12 C         -8.209006   -2.691949   -5.52187 C.ar        1 UNL1     0.0753
     13 C         -7.159246   -2.135364   -4.723856 C.ar        1 UNL1     0.0305
     14 C         -6.370147   -0.995209   -5.184749 C.2        1 UNL1     0.0924
     15 N         -6.231505   0.863552   -6.344539 N.pl3        1 UNL1     -0.3170
     16 C         -5.009517   0.695347   -5.603792 C.3        1 UNL1     0.1275
     17 N         -5.308451   -0.417795   -4.629483 N.2        1 UNL1     -0.2557
     18 C         -3.966865   0.14295   -6.570971 C.3        1 UNL1     0.0016
     19 C         -3.856576   1.086429   -7.758099 C.3        1 UNL1     0.0026
     20 N         -3.474677   2.405577   -7.2733 N.3        1 UNL1     -0.3018
     21 C         -4.385879   2.994281   -6.28968 C.3        1 UNL1     0.0026
     22 C         -4.478174   2.03228   -5.10396 C.3        1 UNL1     0.0016
     23 C         -3.053304   3.296685   -8.33585 C.3        1 UNL1     0.0012
     24 C         -1.753647   2.789572   -8.980432 C.3        1 UNL1     -0.0339
     25 C         -1.50752   1.306466   -8.658137 C.3        1 UNL1     -0.0615
     26 C         -1.783606   3.038597   -10.478387 C.3        1 UNL1     -0.0615
     27 C         -8.875494   -3.850971   -5.131256 C.ar        1 UNL1     0.1347
     28 C         -8.554982   -4.561108   -3.988002 C.ar        1 UNL1     0.0342
     29 C         -7.551544   -3.967624   -3.192985 C.ar        1 UNL1     0.1435
     30 C         -6.900046   -2.787396   -3.553308 C.ar        1 UNL1     0.0774
     31 O         -7.051381   -4.594193   -2.10567 O.3        1 UNL1     -0.4436
     32 C         -5.791898   -3.949482   -1.862932 C.3        1 UNL1     0.3143
     33 C         -5.912925   -2.586128   -2.513188 C.2        1 UNL1     0.2504
     34 C         -9.049347   -5.936772   -3.636933 C.3        1 UNL1     -0.0327
     35 O         -5.690679   -3.730511   -0.450467 O.2        1 UNL1     -0.4528
     36 C         -1.984824   -3.862931   0.360207 C.3        1 UNL1     0.0854
     37 C         -0.804887   -2.996743   -0.227151 C.3        1 UNL1     0.0236
     38 C         0.081576   -2.230999   0.868094 C.3        1 UNL1     0.1131
     39 C         -0.626342   -1.348385   1.973586 C.3        1 UNL1     0.0200
     40 C         -1.882832   -0.330188   1.564996 C.3        1 UNL1     0.0661
     41 C         -1.878229   0.793337   0.294059 C.3        1 UNL1     0.0091
     42 C         -3.246388   1.387799   -0.773723 C.3        1 UNL1     0.0661
     43 C         -8.504093   -2.04429   -6.824068 C.2        1 UNL1     0.2131
     44 O         -9.063984   -2.610027   -7.745589 O.2        1 UNL1     -0.2851
     45 O         -9.915743   -4.301143   -5.941605 O.3        1 UNL1     -0.5056
     46 O         -5.340104   -1.55958   -2.223483 O.2        1 UNL1     -0.2836
     47 C         -5.596278   2.28654   0.114023 C.3        1 UNL1     -0.0566
     48 O         -2.893718   2.820298   -0.623099 O.3        1 UNL1     -0.3909
     49 C         -0.705985   0.4974   -0.614653 C.3        1 UNL1     -0.0577
     50 O         -3.116605   -1.019057   1.596455 O.3        1 UNL1     -0.3910
     51 O         -2.223645   -3.722048   1.742433 O.3        1 UNL1     -0.3753
     52 C         -1.189644   -2.339116   -1.592596 C.3        1 UNL1     -0.0564
     53 O         1.38306   -1.711528   0.330865 O.3        1 UNL1     -0.4608
     54 C         1.644905   -1.430929   -0.98467 C.2        1 UNL1     0.3042
     55 O         1.816992   -2.235001   -1.899925 O.2        1 UNL1     -0.2512
     56 C         1.656589   0.038789   -1.295323 C.3        1 UNL1     0.0332
     57 C         -0.797251   -2.256363   3.279167 C.3        1 UNL1     -0.0567
     58 C         -4.725732   -4.772012   -2.62337 C.3        1 UNL1     0.0210
     59 C         -3.334234   -2.891147   2.077187 C.3        1 UNL1     0.0372
     60 C         -3.295527   -3.685197   -0.322162 C.2        1 UNL1     -0.0208
     61 C         -4.519659   -3.530279   0.184046 C.2        1 UNL1     0.0882
     62 H         -5.215963   0.580059   -1.121938 H        1 UNL1     0.0365
     63 H         -6.718545   0.700187   -2.499634 H        1 UNL1     0.0576
     64 H         -6.897664   3.529857   -3.706971 H        1 UNL1     0.0615
     65 H         -8.408179   0.862185   -4.306746 H        1 UNL1     0.0622
     66 H         -1.684787   -4.903083   0.170186 H        1 UNL1     0.0645
     67 H         -0.086897   -3.744241   -0.607015 H        1 UNL1     0.0362
     68 H         0.496089   -3.096556   1.407087 H        1 UNL1     0.0741
     69 H         0.102047   -0.668718   2.395381 H        1 UNL1     0.0359
     70 H         -1.904069   0.316384   2.463079 H        1 UNL1     0.0600
     71 H         -1.515087   1.691382   0.831275 H        1 UNL1     0.0348
     72 H         -3.723499   0.95348   0.116809 H        1 UNL1     0.0602
     73 H         -3.166947   -3.823555   -1.366945 H        1 UNL1     0.0628
     74 H         -4.731388   -3.325459   1.234026 H        1 UNL1     0.1022
     75 H         -9.857892   2.868026   -7.709403 H        1 UNL1     0.0279
     76 H         -9.711966   4.135048   -6.557596 H        1 UNL1     0.0279
     77 H         -8.291197   3.534594   -7.504256 H        1 UNL1     0.0279
     78 H         -8.014258   0.997558   -7.961776 H        1 UNL1     0.1553
     79 H         -6.343564   1.560777   -7.057457 H        1 UNL1     0.1484
     80 H         -3.008692   0.045568   -6.046387 H        1 UNL1     0.0317
     81 H         -4.241635   -0.861369   -6.910819 H        1 UNL1     0.0317
     82 H         -4.794566   1.131481   -8.330862 H        1 UNL1     0.0428
     83 H         -3.109271   0.672737   -8.435922 H        1 UNL1     0.0428
     84 H         -4.035429   3.947919   -5.882776 H        1 UNL1     0.0428
     85 H         -5.363034   3.235305   -6.730579 H        1 UNL1     0.0428
     86 H         -5.042625   2.552389   -4.352383 H        1 UNL1     0.0317
     87 H         -3.490856   1.911544   -4.641658 H        1 UNL1     0.0317
     88 H         -3.840276   3.311724   -9.101189 H        1 UNL1     0.0429
     89 H         -2.939299   4.32578   -7.971513 H        1 UNL1     0.0429
     90 H         -0.909943   3.375067   -8.596281 H        1 UNL1     0.0308
     91 H         -2.113926   0.655174   -9.294685 H        1 UNL1     0.0233
     92 H         -0.452678   1.052991   -8.787246 H        1 UNL1     0.0233
     93 H         -1.75684   1.057852   -7.619452 H        1 UNL1     0.0233
     94 H         -2.817959   3.050524   -10.838675 H        1 UNL1     0.0233
     95 H         -1.336616   4.010713   -10.704556 H        1 UNL1     0.0233
     96 H         -1.236968   2.263488   -11.022777 H        1 UNL1     0.0233
     97 H         -8.538738   -6.710035   -4.203125 H        1 UNL1     0.0280
     98 H         -8.882533   -6.179039   -2.57923 H        1 UNL1     0.0280
     99 H         -10.128334   -6.007027   -3.851284 H        1 UNL1     0.0280
     100 H         -10.351615   -3.625493   -6.43062 H        1 UNL1     0.2922
     101 H         -6.103393   3.225471   -0.10711 H        1 UNL1     0.0236
     102 H         -4.830489   2.405782   0.879746 H        1 UNL1     0.0236
     103 H         -6.368526   1.655495   0.584776 H        1 UNL1     0.0236
     104 H         -1.964283   2.926528   -0.905653 H        1 UNL1     0.2098
     105 H         -0.939615   -0.15766   -1.450192 H        1 UNL1     0.0234
     106 H         -0.167105   1.377953   -0.96417 H        1 UNL1     0.0234
     107 H         0.0   0.0   0.0 H        1 UNL1     0.0234
     108 H         -3.399259   -1.0654   2.530118 H        1 UNL1     0.2098
     109 H         -1.626102   -3.063188   -2.29469 H        1 UNL1     0.0234
     110 H         -1.863804   -1.482812   -1.483081 H        1 UNL1     0.0234
     111 H         -0.311051   -1.922632   -2.103047 H        1 UNL1     0.0234
     112 H         0.632672   0.424483   -1.308746 H        1 UNL1     0.0342
     113 H         2.276359   0.599944   -0.597587 H        1 UNL1     0.0342
     114 H         2.080506   0.173763   -2.299933 H        1 UNL1     0.0342
     115 H         -0.005523   -2.064649   4.01646 H        1 UNL1     0.0234
     116 H         -1.755828   -2.129044   3.786088 H        1 UNL1     0.0234
     117 H         -0.653735   -3.333702   3.087634 H        1 UNL1     0.0234
     118 H         -5.169693   -5.624082   -3.16732 H        1 UNL1     0.0309
     119 H         -4.135779   -4.169667   -3.321466 H        1 UNL1     0.0309
     120 H         -4.004861   -5.249681   -1.95085 H        1 UNL1     0.0309
     121 H         -3.903005   -3.398866   2.855698 H        1 UNL1     0.0524
     122 H         -3.01933   -1.914039   2.479844 H        1 UNL1     0.0524
     123 H         -3.958313   -2.727754   1.203161 H        1 UNL1     0.0524
@<TRIPOS>BOND
     1     1     2    1
     2     1    42    1
     3     2     3    2
     4     3     4    1
     5     4     5    2
     6     5     7    1
     7     6    75    1
     8     6    76    1
     9     6    77    1
    10     7     9   am
    11     9    10    1
    12    10    11    2
    13    10    43    1
    14    11    14    1
    15    11    15    1
    16    12    13   ar
    17    12    27   ar
    18    12    43    1
    19    13    14    1
    20    13    30   ar
    21    14    17    2
    22    15    16    1
    23    16    17    1
    24    16    18    1
    25    16    22    1
    26    18    19    1
    27    19    20    1
    28    20    21    1
    29    21    22    1
    30    23    24    1
    31    23    88    1
    32    23    89    1
    33    24    25    1
    34    24    26    1
    35    24    90    1
    36    25    91    1
    37    25    92    1
    38    25    93    1
    39    26    94    1
    40    26    95    1
    41    26    96    1
    42    27    28   ar
    43    28    29   ar
    44    29    30   ar
    45    29    31    1
    46    30    33    1
    47    31    32    1
    48    32    33    1
    49    32    35    1
    50    34    97    1
    51    34    98    1
    52    34    99    1
    53    35    61    1
    54    36    37    1
    55    36    60    1
    56    37    38    1
    57    38    39    1
    58    39    40    1
    59    40    41    1
    60    41    42    1
    61    45   100    1
    62    47   101    1
    63    47   102    1
    64    47   103    1
    65    48   104    1
    66    49   105    1
    67    49   106    1
    68    49   107    1
    69    50   108    1
    70    51    59    1
    71    52   109    1
    72    52   110    1
    73    52   111    1
    74    53    54    1
    75    54    55    2
    76    54    56    1
    77    56   112    1
    78    56   113    1
    79    56   114    1
    80    57   115    1
    81    57   116    1
    82    57   117    1
    83    58   118    1
    84    58   119    1
    85    58   120    1
    86    59   121    1
    87    59   122    1
    88    59   123    1
    89    60    61    2
    90     1    47    1
    91     1    62    1
    92     2    63    1
    93     3    64    1
    94     4    65    1
    95     5     6    1
    96     7     8    2
    97     9    78    1
    98    15    79    1
    99    18    80    1
   100    18    81    1
   101    19    82    1
   102    19    83    1
   103    20    23    1
   104    21    84    1
   105    21    85    1
   106    22    86    1
   107    22    87    1
   108    27    45    1
   109    28    34    1
   110    32    58    1
   111    33    46    2
   112    36    51    1
   113    36    66    1
   114    37    52    1
   115    37    67    1
   116    38    53    1
   117    38    68    1
   118    42    48    1
   119    42    72    1
   120    43    44    2
   121    60    73    1
   122    61    74    1
   123    39    69    1
   124    39    57    1
   125    40    70    1
   126    40    50    1
   127    41    71    1
   128    41    49    1
