@<TRIPOS>MOLECULE
*****
 123 128 0 0 0
SMALL
GASTEIGER

@<TRIPOS>ATOM
     1 C         4.971423   2.239754   0.529344 C.3        1 UNL1     0.0009
     2 C         6.358534   3.11707   -0.332792 C.2        1 UNL1     -0.0787
     3 C         7.670859   3.09595   -0.943859 C.2        1 UNL1     -0.0649
     4 C         8.456566   4.350682   -1.765241 C.2        1 UNL1     -0.0542
     5 C         9.482418   4.670511   -2.688505 C.2        1 UNL1     0.0115
     6 C         10.701051   4.095774   -3.461767 C.3        1 UNL1     -0.0348
     7 C         9.460188   6.105241   -3.408259 C.2        1 UNL1     0.2441
     8 O         10.184567   7.030979   -3.069421 O.2        1 UNL1     -0.2702
     9 N         8.743613   6.146774   -4.616955 N.am        1 UNL1     -0.2772
     10 C         7.417566   6.427158   -4.379664 C.2        1 UNL1     0.1049
     11 C         6.657552   5.401796   -4.040203 C.2        1 UNL1     0.0801
     12 C         5.912322   8.000135   -3.147869 C.ar        1 UNL1     0.0753
     13 C         5.247042   6.839983   -2.637912 C.ar        1 UNL1     0.0305
     14 C         5.516121   5.506862   -3.172175 C.2        1 UNL1     0.0924
     15 N         6.914006   4.083282   -4.087961 N.pl3        1 UNL1     -0.3170
     16 C         5.695528   3.386876   -3.77081 C.3        1 UNL1     0.1275
     17 N         4.929438   4.346315   -2.893139 N.2        1 UNL1     -0.2557
     18 C         4.89504   3.264396   -5.063837 C.3        1 UNL1     0.0016
     19 C         5.759156   2.574362   -6.107267 C.3        1 UNL1     0.0026
     20 N         6.144044   1.263358   -5.603126 N.3        1 UNL1     -0.3018
     21 C         6.866307   1.274577   -4.329322 C.3        1 UNL1     0.0026
     22 C         5.978161   1.96804   -3.294816 C.3        1 UNL1     0.0016
     23 C         6.711729   0.409607   -6.627571 C.3        1 UNL1     0.0012
     24 C         5.628104   -0.027499   -7.625795 C.3        1 UNL1     -0.0339
     25 C         5.886725   -1.449779   -8.149524 C.3        1 UNL1     -0.0615
     26 C         4.254483   0.092534   -6.988976 C.3        1 UNL1     -0.0615
     27 C         5.564118   9.27877   -2.718959 C.ar        1 UNL1     0.1347
     28 C         4.543932   9.524395   -1.817327 C.ar        1 UNL1     0.0342
     29 C         3.935913   8.364451   -1.291964 C.ar        1 UNL1     0.1435
     30 C         4.298754   7.075671   -1.685171 C.ar        1 UNL1     0.0774
     31 O         2.853742   8.439063   -0.486764 O.3        1 UNL1     -0.4436
     32 C         2.260604   7.133509   -0.554505 C.3        1 UNL1     0.3143
     33 C         3.386253   6.208069   -0.970066 C.2        1 UNL1     0.2504
     34 C         3.949602   10.869093   -1.503227 C.3        1 UNL1     -0.0327
     35 O         1.888418   6.765   0.779261 O.2        1 UNL1     -0.4528
     36 C         -1.134154   4.496077   0.426936 C.3        1 UNL1     0.0854
     37 C         -1.278689   3.146594   -0.376512 C.3        1 UNL1     0.0236
     38 C         -1.787904   1.896086   0.488747 C.3        1 UNL1     0.1131
     39 C         -1.070011   1.540701   1.852785 C.3        1 UNL1     0.0200
     40 C         0.594255   1.564196   1.962796 C.3        1 UNL1     0.0661
     41 C         1.671566   0.807291   0.893167 C.3        1 UNL1     0.0091
     42 C         3.358644   1.293272   0.361196 C.3        1 UNL1     0.0661
     43 C         6.924379   7.802673   -4.215114 C.2        1 UNL1     0.2131
     44 O         7.266005   8.678467   -4.989074 O.2        1 UNL1     -0.2851
     45 O         6.2917   10.351275   -3.230618 O.3        1 UNL1     -0.5056
     46 O         3.512369   5.025576   -0.742783 O.2        1 UNL1     -0.2836
     47 C         5.346216   1.962814   2.01016 C.3        1 UNL1     -0.0566
     48 O         3.93697   -0.056   0.571239 O.3        1 UNL1     -0.3909
     49 C         0.916671   0.39909   -0.352224 C.3        1 UNL1     -0.0577
     50 O         1.057452   2.862007   2.277215 O.3        1 UNL1     -0.3910
     51 O         -1.29802   4.401866   1.82397 O.3        1 UNL1     -0.3753
     52 C         -0.175954   3.002938   -1.475733 C.3        1 UNL1     -0.0564
     53 O         -2.249303   0.736781   -0.345188 O.3        1 UNL1     -0.4608
     54 C         -2.055538   -0.586052   -0.04436 C.2        1 UNL1     0.3042
     55 O         -1.22552   -1.349919   -0.535699 O.2        1 UNL1     -0.2512
     56 C         -2.94791   -1.089988   1.054018 C.3        1 UNL1     0.0332
     57 C         -1.904593   2.229263   3.03072 C.3        1 UNL1     -0.0567
     58 C         1.213524   7.187227   -1.691284 C.3        1 UNL1     0.0210
     59 C         -2.513282   4.957922   2.323775 C.3        1 UNL1     0.0372
     60 C         0.136732   5.234399   0.192645 C.2        1 UNL1     -0.0208
     61 C         0.966091   5.823157   1.055357 C.2        1 UNL1     0.0882
     62 H         4.399816   3.175653   0.520977 H        1 UNL1     0.0365
     63 H         5.987984   4.144219   -0.321536 H        1 UNL1     0.0576
     64 H         8.228279   2.165208   -1.070779 H        1 UNL1     0.0615
     65 H         7.869522   5.237065   -1.509922 H        1 UNL1     0.0622
     66 H         -1.933385   5.139187   0.032367 H        1 UNL1     0.0645
     67 H         -2.143413   3.320993   -1.040137 H        1 UNL1     0.0362
     68 H         -2.786586   2.262471   0.771446 H        1 UNL1     0.0741
     69 H         -1.310719   0.519605   2.11704 H        1 UNL1     0.0359
     70 H         0.731736   0.987459   2.897426 H        1 UNL1     0.0600
     71 H         1.795091   -0.168906   1.40183 H        1 UNL1     0.0348
     72 H         3.165076   1.841973   1.294349 H        1 UNL1     0.0602
     73 H         0.278734   5.362607   -0.851695 H        1 UNL1     0.0628
     74 H         0.92377   5.694134   2.137392 H        1 UNL1     0.1022
     75 H         11.362048   3.513865   -2.775109 H        1 UNL1     0.0279
     76 H         10.481954   3.372916   -4.244418 H        1 UNL1     0.0279
     77 H         11.389138   4.878433   -3.81345 H        1 UNL1     0.0279
     78 H         8.787745   5.23743   -5.072171 H        1 UNL1     0.1553
     79 H         7.642796   3.677471   -4.645738 H        1 UNL1     0.1484
     80 H         3.97809   2.696822   -4.864262 H        1 UNL1     0.0317
     81 H         4.581424   4.249818   -5.424724 H        1 UNL1     0.0317
     82 H         6.644046   3.174836   -6.364781 H        1 UNL1     0.0428
     83 H         5.169772   2.498953   -7.021592 H        1 UNL1     0.0428
     84 H         7.073208   0.27538   -3.933584 H        1 UNL1     0.0428
     85 H         7.859696   1.73394   -4.4267 H        1 UNL1     0.0428
     86 H         6.477499   1.840231   -2.352312 H        1 UNL1     0.0317
     87 H         5.044782   1.406584   -3.165714 H        1 UNL1     0.0317
     88 H         7.473536   0.985807   -7.168809 H        1 UNL1     0.0429
     89 H         7.218073   -0.459016   -6.187249 H        1 UNL1     0.0429
     90 H         5.624764   0.663002   -8.477506 H        1 UNL1     0.0308
     91 H         6.780331   -1.485143   -8.779857 H        1 UNL1     0.0233
     92 H         6.004766   -2.151259   -7.320308 H        1 UNL1     0.0233
     93 H         5.054962   -1.829464   -8.755202 H        1 UNL1     0.0233
     94 H         4.335781   0.557218   -6.000394 H        1 UNL1     0.0233
     95 H         3.610246   0.724554   -7.606609 H        1 UNL1     0.0233
     96 H         3.781595   -0.886664   -6.87271 H        1 UNL1     0.0233
     97 H         2.883143   10.900513   -1.705485 H        1 UNL1     0.0280
     98 H         4.062517   11.134213   -0.443879 H        1 UNL1     0.0280
     99 H         4.44062   11.642039   -2.116865 H        1 UNL1     0.0280
     100 H         7.2249   10.269877   -3.140422 H        1 UNL1     0.2922
     101 H         4.817169   2.659726   2.659837 H        1 UNL1     0.0236
     102 H         6.420839   1.972065   2.189276 H        1 UNL1     0.0236
     103 H         5.014676   0.964584   2.34154 H        1 UNL1     0.0236
     104 H         3.201656   -0.661259   0.790202 H        1 UNL1     0.2098
     105 H         0.685033   1.219947   -1.026279 H        1 UNL1     0.0234
     106 H         1.362145   -0.428585   -0.903978 H        1 UNL1     0.0234
     107 H         0.0   -0.0   0.0 H        1 UNL1     0.0234
     108 H         2.018908   2.876172   2.106423 H        1 UNL1     0.2098
     109 H         -0.223676   3.809422   -2.220728 H        1 UNL1     0.0234
     110 H         0.837264   2.944104   -1.063821 H        1 UNL1     0.0234
     111 H         -0.287918   2.068514   -2.041652 H        1 UNL1     0.0234
     112 H         -2.728594   -2.142361   1.258367 H        1 UNL1     0.0342
     113 H         -2.862306   -0.490196   1.958875 H        1 UNL1     0.0342
     114 H         -3.988636   -1.023883   0.708063 H        1 UNL1     0.0342
     115 H         -2.971363   2.312045   2.781048 H        1 UNL1     0.0234
     116 H         -1.830857   1.710873   3.988783 H        1 UNL1     0.0234
     117 H         -1.641475   3.288315   3.1954 H        1 UNL1     0.0234
     118 H         0.180252   7.132158   -1.306157 H        1 UNL1     0.0309
     119 H         1.312685   8.074109   -2.325169 H        1 UNL1     0.0309
     120 H         1.27866   6.324966   -2.363867 H        1 UNL1     0.0309
     121 H         -2.375884   6.036237   2.399379 H        1 UNL1     0.0524
     122 H         -3.365037   4.77846   1.646764 H        1 UNL1     0.0524
     123 H         -2.74439   4.540179   3.299568 H        1 UNL1     0.0524
@<TRIPOS>BOND
     1     1     2    1
     2     1    42    1
     3     2     3    2
     4     3     4    1
     5     4     5    2
     6     5     7    1
     7     6    75    1
     8     6    76    1
     9     6    77    1
    10     7     9   am
    11     9    10    1
    12    10    11    2
    13    10    43    1
    14    11    14    1
    15    11    15    1
    16    12    13   ar
    17    12    27   ar
    18    12    43    1
    19    13    14    1
    20    13    30   ar
    21    14    17    2
    22    15    16    1
    23    16    17    1
    24    16    18    1
    25    16    22    1
    26    18    19    1
    27    19    20    1
    28    20    21    1
    29    21    22    1
    30    23    24    1
    31    23    88    1
    32    23    89    1
    33    24    25    1
    34    24    26    1
    35    24    90    1
    36    25    91    1
    37    25    92    1
    38    25    93    1
    39    26    94    1
    40    26    95    1
    41    26    96    1
    42    27    28   ar
    43    28    29   ar
    44    29    30   ar
    45    29    31    1
    46    30    33    1
    47    31    32    1
    48    32    33    1
    49    32    35    1
    50    34    97    1
    51    34    98    1
    52    34    99    1
    53    35    61    1
    54    36    37    1
    55    36    60    1
    56    37    38    1
    57    38    39    1
    58    39    40    1
    59    40    41    1
    60    41    42    1
    61    45   100    1
    62    47   101    1
    63    47   102    1
    64    47   103    1
    65    48   104    1
    66    49   105    1
    67    49   106    1
    68    49   107    1
    69    50   108    1
    70    51    59    1
    71    52   109    1
    72    52   110    1
    73    52   111    1
    74    53    54    1
    75    54    55    2
    76    54    56    1
    77    56   112    1
    78    56   113    1
    79    56   114    1
    80    57   115    1
    81    57   116    1
    82    57   117    1
    83    58   118    1
    84    58   119    1
    85    58   120    1
    86    59   121    1
    87    59   122    1
    88    59   123    1
    89    60    61    2
    90     1    47    1
    91     1    62    1
    92     2    63    1
    93     3    64    1
    94     4    65    1
    95     5     6    1
    96     7     8    2
    97     9    78    1
    98    15    79    1
    99    18    80    1
   100    18    81    1
   101    19    82    1
   102    19    83    1
   103    20    23    1
   104    21    84    1
   105    21    85    1
   106    22    86    1
   107    22    87    1
   108    27    45    1
   109    28    34    1
   110    32    58    1
   111    33    46    2
   112    36    51    1
   113    36    66    1
   114    37    52    1
   115    37    67    1
   116    38    53    1
   117    38    68    1
   118    42    48    1
   119    42    72    1
   120    43    44    2
   121    60    73    1
   122    61    74    1
   123    39    69    1
   124    39    57    1
   125    40    70    1
   126    40    50    1
   127    41    71    1
   128    41    49    1
