@<TRIPOS>MOLECULE
*****
 123 128 0 0 0
SMALL
GASTEIGER

@<TRIPOS>ATOM
     1 C         4.326062   2.361272   -2.389321 C.3        1 UNL1     0.0009
     2 C         5.83063   2.104044   -3.44153 C.2        1 UNL1     -0.0787
     3 C         7.264323   1.945532   -3.565814 C.2        1 UNL1     -0.0649
     4 C         8.15416   1.582535   -4.959651 C.2        1 UNL1     -0.0542
     5 C         9.383767   1.082444   -5.45468 C.2        1 UNL1     0.0115
     6 C         10.82682   0.671879   -5.051745 C.3        1 UNL1     -0.0348
     7 C         9.461522   0.580151   -6.97739 C.2        1 UNL1     0.2441
     8 O         9.962511   1.246068   -7.872985 O.2        1 UNL1     -0.2702
     9 N         9.153615   -0.778458   -7.165872 N.am        1 UNL1     -0.2772
     10 C         7.80024   -0.942758   -7.352162 C.2        1 UNL1     0.1049
     11 C         7.06411   -0.995379   -6.256915 C.2        1 UNL1     0.0801
     12 C         5.857517   -0.066867   -8.662116 C.ar        1 UNL1     0.0753
     13 C         5.169959   0.053872   -7.412598 C.ar        1 UNL1     0.0305
     14 C         5.705426   -0.530421   -6.185028 C.2        1 UNL1     0.0924
     15 N         7.435731   -1.124813   -4.971741 N.pl3        1 UNL1     -0.3170
     16 C         6.243939   -1.303007   -4.185527 C.3        1 UNL1     0.1275
     17 N         5.163824   -0.601621   -4.972376 N.2        1 UNL1     -0.2557
     18 C         5.896863   -2.788266   -4.22078 C.3        1 UNL1     0.0016
     19 C         7.097831   -3.580155   -3.728665 C.3        1 UNL1     0.0026
     20 N         7.419546   -3.14924   -2.37521 N.3        1 UNL1     -0.3018
     21 C         7.708119   -1.720999   -2.22953 C.3        1 UNL1     0.0026
     22 C         6.486864   -0.94472   -2.725333 C.3        1 UNL1     0.0016
     23 C         8.348092   -4.038408   -1.706011 C.3        1 UNL1     0.0012
     24 C         7.668833   -5.376631   -1.375069 C.3        1 UNL1     -0.0339
     25 C         8.051648   -6.467445   -2.388792 C.3        1 UNL1     -0.0615
     26 C         8.003198   -5.792769   0.046835 C.3        1 UNL1     -0.0615
     27 C         5.284454   0.386367   -9.847989 C.ar        1 UNL1     0.1347
     28 C         4.018024   0.939259   -9.915183 C.ar        1 UNL1     0.0342
     29 C         3.379899   1.092745   -8.666022 C.ar        1 UNL1     0.1435
     30 C         3.956646   0.676436   -7.465492 C.ar        1 UNL1     0.0774
     31 O         2.099416   1.513723   -8.575772 O.3        1 UNL1     -0.4436
     32 C         1.671604   1.096404   -7.270516 C.3        1 UNL1     0.3143
     33 C         2.946179   0.948012   -6.464507 C.2        1 UNL1     0.2504
     34 C         3.241733   1.214533   -11.172838 C.3        1 UNL1     -0.0327
     35 O         0.938082   2.184305   -6.694608 O.2        1 UNL1     -0.4528
     36 C         -1.618822   0.603927   -4.376692 C.3        1 UNL1     0.0854
     37 C         -1.390259   -0.367122   -3.155075 C.3        1 UNL1     0.0236
     38 C         -2.032229   0.125739   -1.770623 C.3        1 UNL1     0.1131
     39 C         -1.744037   1.591118   -1.249204 C.3        1 UNL1     0.0200
     40 C         -0.204194   2.227795   -1.326434 C.3        1 UNL1     0.0661
     41 C         1.212546   1.4708   -0.781075 C.3        1 UNL1     0.0091
     42 C         2.932771   1.569976   -1.410673 C.3        1 UNL1     0.0661
     43 C         7.163362   -0.771858   -8.666519 C.2        1 UNL1     0.2131
     44 O         7.650767   -1.279616   -9.660176 O.2        1 UNL1     -0.2851
     45 O         6.039112   0.272828   -11.013767 O.3        1 UNL1     -0.5056
     46 O         3.097466   1.05258   -5.267832 O.2        1 UNL1     -0.2836
     47 C         4.246427   3.836911   -1.913791 C.3        1 UNL1     -0.0566
     48 O         3.532022   1.781424   -0.070784 O.3        1 UNL1     -0.3909
     49 C         0.918596   0.008784   -0.528889 C.3        1 UNL1     -0.0577
     50 O         0.024869   2.834466   -2.582302 O.3        1 UNL1     -0.3910
     51 O         -2.198384   1.852246   -4.071342 O.3        1 UNL1     -0.3753
     52 C         0.0067   -1.066469   -3.221174 C.3        1 UNL1     -0.0564
     53 O         -2.110716   -0.950942   -0.728066 O.3        1 UNL1     -0.4608
     54 C         -2.221595   -0.743862   0.622028 C.2        1 UNL1     0.3042
     55 O         -1.377337   -0.979225   1.485551 O.2        1 UNL1     -0.2512
     56 C         -3.519245   -0.105048   1.027902 C.3        1 UNL1     0.0332
     57 C         -2.958555   2.518591   -1.721341 C.3        1 UNL1     -0.0567
     58 C         1.027414   -0.298432   -7.446532 C.3        1 UNL1     0.0210
     59 C         -2.929232   2.451334   -5.14037 C.3        1 UNL1     0.0372
     60 C         -0.406682   0.881949   -5.19436 C.2        1 UNL1     -0.0208
     61 C         0.060651   2.030965   -5.684366 C.2        1 UNL1     0.0882
     62 H         3.70647   2.289291   -3.291338 H        1 UNL1     0.0365
     63 H         5.38746   2.126079   -4.43932 H        1 UNL1     0.0576
     64 H         7.911921   1.886548   -2.688178 H        1 UNL1     0.0615
     65 H         7.442591   1.747107   -5.773327 H        1 UNL1     0.0622
     66 H         -2.309071   0.059668   -5.036529 H        1 UNL1     0.0645
     67 H         -2.018699   -1.244127   -3.388497 H        1 UNL1     0.0362
     68 H         -3.097109   0.119268   -2.049034 H        1 UNL1     0.0741
     69 H         -1.965506   1.633876   -0.191125 H        1 UNL1     0.0359
     70 H         -0.313521   3.076891   -0.624905 H        1 UNL1     0.0600
     71 H         1.256424   1.864899   0.253197 H        1 UNL1     0.0348
     72 H         2.413124   2.454131   -1.807603 H        1 UNL1     0.0602
     73 H         0.040039   -0.037717   -5.480546 H        1 UNL1     0.0628
     74 H         -0.30328   3.017706   -5.396038 H        1 UNL1     0.1022
     75 H         10.972638   0.782256   -3.950115 H        1 UNL1     0.0279
     76 H         11.100894   -0.366951   -5.221403 H        1 UNL1     0.0279
     77 H         11.589717   1.361593   -5.441596 H        1 UNL1     0.0279
     78 H         9.414962   -1.30673   -6.33599 H        1 UNL1     0.1553
     79 H         8.333619   -1.467741   -4.683417 H        1 UNL1     0.1484
     80 H         5.01586   -2.964575   -3.59188 H        1 UNL1     0.0317
     81 H         5.626433   -3.102954   -5.234432 H        1 UNL1     0.0317
     82 H         7.963571   -3.464343   -4.397242 H        1 UNL1     0.0428
     83 H         6.829335   -4.636438   -3.763676 H        1 UNL1     0.0428
     84 H         7.867899   -1.409317   -1.192642 H        1 UNL1     0.0428
     85 H         8.639219   -1.437973   -2.739694 H        1 UNL1     0.0428
     86 H         6.678938   0.083709   -2.481554 H        1 UNL1     0.0317
     87 H         5.611594   -1.191697   -2.112144 H        1 UNL1     0.0317
     88 H         9.187224   -4.231422   -2.387111 H        1 UNL1     0.0429
     89 H         8.766329   -3.572947   -0.804236 H        1 UNL1     0.0429
     90 H         6.580834   -5.243046   -1.400061 H        1 UNL1     0.0308
     91 H         9.135919   -6.607437   -2.431946 H        1 UNL1     0.0233
     92 H         7.577336   -7.417434   -2.131579 H        1 UNL1     0.0233
     93 H         7.721264   -6.226348   -3.406413 H        1 UNL1     0.0233
     94 H         7.702133   -6.832133   0.216888 H        1 UNL1     0.0233
     95 H         9.08187   -5.722792   0.212761 H        1 UNL1     0.0233
     96 H         7.491806   -5.160774   0.778292 H        1 UNL1     0.0233
     97 H         2.251457   1.607472   -10.962639 H        1 UNL1     0.0280
     98 H         3.733721   1.963297   -11.807312 H        1 UNL1     0.0280
     99 H         3.128185   0.281166   -11.748189 H        1 UNL1     0.0280
     100 H         5.604325   -0.172202   -11.719834 H        1 UNL1     0.2922
     101 H         3.330992   3.990273   -1.342726 H        1 UNL1     0.0236
     102 H         4.346493   4.555249   -2.726785 H        1 UNL1     0.0236
     103 H         5.059264   4.09062   -1.212991 H        1 UNL1     0.0236
     104 H         3.622522   2.745196   0.063092 H        1 UNL1     0.2098
     105 H         0.789326   -0.585276   -1.430107 H        1 UNL1     0.0234
     106 H         1.612031   -0.484211   0.152309 H        1 UNL1     0.0234
     107 H         0.0   0.0   0.0 H        1 UNL1     0.0234
     108 H         0.005447   2.126232   -3.25446 H        1 UNL1     0.2098
     109 H         0.83393   -0.343086   -3.232092 H        1 UNL1     0.0234
     110 H         0.163982   -1.790812   -2.414742 H        1 UNL1     0.0234
     111 H         0.119033   -1.660322   -4.138052 H        1 UNL1     0.0234
     112 H         -3.53455   0.050974   2.110846 H        1 UNL1     0.0342
     113 H         -3.700425   0.827834   0.49616 H        1 UNL1     0.0342
     114 H         -4.335454   -0.795931   0.775617 H        1 UNL1     0.0342
     115 H         -3.922449   2.155218   -1.339169 H        1 UNL1     0.0234
     116 H         -2.86039   3.564372   -1.423422 H        1 UNL1     0.0234
     117 H         -3.13653   2.489915   -2.810121 H        1 UNL1     0.0234
     118 H         -0.025535   -0.230771   -7.771687 H        1 UNL1     0.0309
     119 H         1.576587   -0.940574   -8.142423 H        1 UNL1     0.0309
     120 H         0.965697   -0.854805   -6.50486 H        1 UNL1     0.0309
     121 H         -2.223121   2.66876   -5.941301 H        1 UNL1     0.0524
     122 H         -3.699049   1.776676   -5.550558 H        1 UNL1     0.0524
     123 H         -3.406506   3.366891   -4.802643 H        1 UNL1     0.0524
@<TRIPOS>BOND
     1     1     2    1
     2     1    42    1
     3     2     3    2
     4     3     4    1
     5     4     5    2
     6     5     7    1
     7     6    75    1
     8     6    76    1
     9     6    77    1
    10     7     9   am
    11     9    10    1
    12    10    11    2
    13    10    43    1
    14    11    14    1
    15    11    15    1
    16    12    13   ar
    17    12    27   ar
    18    12    43    1
    19    13    14    1
    20    13    30   ar
    21    14    17    2
    22    15    16    1
    23    16    17    1
    24    16    18    1
    25    16    22    1
    26    18    19    1
    27    19    20    1
    28    20    21    1
    29    21    22    1
    30    23    24    1
    31    23    88    1
    32    23    89    1
    33    24    25    1
    34    24    26    1
    35    24    90    1
    36    25    91    1
    37    25    92    1
    38    25    93    1
    39    26    94    1
    40    26    95    1
    41    26    96    1
    42    27    28   ar
    43    28    29   ar
    44    29    30   ar
    45    29    31    1
    46    30    33    1
    47    31    32    1
    48    32    33    1
    49    32    35    1
    50    34    97    1
    51    34    98    1
    52    34    99    1
    53    35    61    1
    54    36    37    1
    55    36    60    1
    56    37    38    1
    57    38    39    1
    58    39    40    1
    59    40    41    1
    60    41    42    1
    61    45   100    1
    62    47   101    1
    63    47   102    1
    64    47   103    1
    65    48   104    1
    66    49   105    1
    67    49   106    1
    68    49   107    1
    69    50   108    1
    70    51    59    1
    71    52   109    1
    72    52   110    1
    73    52   111    1
    74    53    54    1
    75    54    55    2
    76    54    56    1
    77    56   112    1
    78    56   113    1
    79    56   114    1
    80    57   115    1
    81    57   116    1
    82    57   117    1
    83    58   118    1
    84    58   119    1
    85    58   120    1
    86    59   121    1
    87    59   122    1
    88    59   123    1
    89    60    61    2
    90     1    47    1
    91     1    62    1
    92     2    63    1
    93     3    64    1
    94     4    65    1
    95     5     6    1
    96     7     8    2
    97     9    78    1
    98    15    79    1
    99    18    80    1
   100    18    81    1
   101    19    82    1
   102    19    83    1
   103    20    23    1
   104    21    84    1
   105    21    85    1
   106    22    86    1
   107    22    87    1
   108    27    45    1
   109    28    34    1
   110    32    58    1
   111    33    46    2
   112    36    51    1
   113    36    66    1
   114    37    52    1
   115    37    67    1
   116    38    53    1
   117    38    68    1
   118    42    48    1
   119    42    72    1
   120    43    44    2
   121    60    73    1
   122    61    74    1
   123    39    69    1
   124    39    57    1
   125    40    70    1
   126    40    50    1
   127    41    71    1
   128    41    49    1
