@<TRIPOS>MOLECULE
*****
 123 128 0 0 0
SMALL
GASTEIGER

@<TRIPOS>ATOM
     1 C         5.142015   1.823079   0.493491 C.3        1 UNL1     0.0009
     2 C         6.558451   2.670039   -0.351143 C.2        1 UNL1     -0.0787
     3 C         7.839213   2.607247   -1.023267 C.2        1 UNL1     -0.0649
     4 C         8.688242   3.870403   -1.764849 C.2        1 UNL1     -0.0542
     5 C         9.698131   4.196826   -2.703278 C.2        1 UNL1     0.0115
     6 C         10.835077   3.606616   -3.582101 C.3        1 UNL1     -0.0348
     7 C         9.760826   5.690063   -3.289199 C.2        1 UNL1     0.2441
     8 O         10.569495   6.522907   -2.903257 O.2        1 UNL1     -0.2702
     9 N         9.001596   5.898124   -4.453858 N.am        1 UNL1     -0.2772
     10 C         7.712657   6.254235   -4.129601 C.2        1 UNL1     0.1049
     11 C         6.88797   5.261848   -3.848031 C.2        1 UNL1     0.0801
     12 C         6.387995   7.814263   -2.691227 C.ar        1 UNL1     0.0753
     13 C         5.65385   6.665004   -2.256667 C.ar        1 UNL1     0.0305
     14 C         5.794461   5.371115   -2.920844 C.2        1 UNL1     0.0924
     15 N         7.036808   3.937994   -4.026313 N.pl3        1 UNL1     -0.3170
     16 C         5.780693   3.30881   -3.715576 C.3        1 UNL1     0.1275
     17 N         5.129246   4.237101   -2.719777 N.2        1 UNL1     -0.2557
     18 C         4.921459   3.368236   -4.974896 C.3        1 UNL1     0.0016
     19 C         5.685237   2.715494   -6.116018 C.3        1 UNL1     0.0026
     20 N         5.984877   1.337895   -5.750688 N.3        1 UNL1     -0.3018
     21 C         6.756588   1.175699   -4.516782 C.3        1 UNL1     0.0026
     22 C         5.968788   1.83449   -3.383089 C.3        1 UNL1     0.0016
     23 C         6.441171   0.543179   -6.87357 C.3        1 UNL1     0.0012
     24 C         5.286851   0.284061   -7.854468 C.3        1 UNL1     -0.0339
     25 C         5.297463   1.293076   -9.014569 C.3        1 UNL1     -0.0615
     26 C         5.343049   -1.147635   -8.35832 C.3        1 UNL1     -0.0615
     27 C         6.159995   9.069856   -2.132998 C.ar        1 UNL1     0.1347
     28 C         5.199764   9.306396   -1.165498 C.ar        1 UNL1     0.0342
     29 C         4.52329   8.151592   -0.718313 C.ar        1 UNL1     0.1435
     30 C         4.766505   6.881491   -1.242632 C.ar        1 UNL1     0.0774
     31 O         3.483851   8.232026   0.140817 O.3        1 UNL1     -0.4436
     32 C         2.786695   6.986912   -0.015829 C.3        1 UNL1     0.3143
     33 C         3.817628   6.022144   -0.565933 C.2        1 UNL1     0.2504
     34 C         4.727224   10.656837   -0.703854 C.3        1 UNL1     -0.0327
     35 O         2.440583   6.52459   1.29555 O.2        1 UNL1     -0.4528
     36 C         -0.764318   4.532668   0.884527 C.3        1 UNL1     0.0854
     37 C         -1.047845   3.278828   -0.029267 C.3        1 UNL1     0.0236
     38 C         -1.619373   1.994938   0.743213 C.3        1 UNL1     0.1131
     39 C         -0.877474   1.460691   2.034118 C.3        1 UNL1     0.0200
     40 C         0.786486   1.348358   2.06663 C.3        1 UNL1     0.0661
     41 C         1.756244   0.615611   0.883305 C.3        1 UNL1     0.0091
     42 C         3.45372   1.020639   0.317679 C.3        1 UNL1     0.0661
     43 C         7.337267   7.641613   -3.818762 C.2        1 UNL1     0.2131
     44 O         7.715812   8.557597   -4.526161 O.2        1 UNL1     -0.2851
     45 O         6.949168   10.127566   -2.580094 O.3        1 UNL1     -0.5056
     46 O         3.858549   4.81747   -0.452177 O.2        1 UNL1     -0.2836
     47 C         5.553119   1.381658   1.923918 C.3        1 UNL1     -0.0566
     48 O         3.931118   -0.38207   0.377808 O.3        1 UNL1     -0.3909
     49 C         0.921663   0.383498   -0.35649 C.3        1 UNL1     -0.0577
     50 O         1.363562   2.572545   2.47415 O.3        1 UNL1     -0.3910
     51 O         -0.878609   4.321061   2.273625 O.3        1 UNL1     -0.3753
     52 C         -0.005275   3.155747   -1.188081 C.3        1 UNL1     -0.0564
     53 O         -2.204638   0.956621   -0.168756 O.3        1 UNL1     -0.4608
     54 C         -2.411083   -0.359248   0.153426 C.2        1 UNL1     0.3042
     55 O         -1.823736   -1.340388   -0.300694 O.2        1 UNL1     -0.2512
     56 C         -3.442957   -0.560954   1.226396 C.3        1 UNL1     0.0332
     57 C         -1.606521   2.09719   3.307512 C.3        1 UNL1     -0.0567
     58 C         1.702145   7.225257   -1.092152 C.3        1 UNL1     0.0210
     59 C         -1.212463   5.482993   3.031465 C.3        1 UNL1     0.0372
     60 C         0.550669   5.19178   0.657501 C.2        1 UNL1     -0.0208
     61 C         1.4583   5.633262   1.529306 C.2        1 UNL1     0.0882
     62 H         4.646636   2.796065   0.596492 H        1 UNL1     0.0365
     63 H         6.271367   3.716637   -0.229961 H        1 UNL1     0.0576
     64 H         8.315408   1.653079   -1.259717 H        1 UNL1     0.0615
     65 H         8.184204   4.770777   -1.403249 H        1 UNL1     0.0622
     66 H         -1.525252   5.268184   0.587806 H        1 UNL1     0.0645
     67 H         -1.922081   3.57907   -0.632696 H        1 UNL1     0.0362
     68 H         -2.573588   2.407527   1.104831 H        1 UNL1     0.0741
     69 H         -1.187615   0.440434   2.216593 H        1 UNL1     0.0359
     70 H         0.91537   0.678174   2.93801 H        1 UNL1     0.0600
     71 H         1.82232   -0.41033   1.295661 H        1 UNL1     0.0348
     72 H         3.342154   1.492844   1.304538 H        1 UNL1     0.0602
     73 H         0.66012   5.40586   -0.376636 H        1 UNL1     0.0628
     74 H         1.449591   5.407345   2.596134 H        1 UNL1     0.1022
     75 H         10.902586   2.500436   -3.444826 H        1 UNL1     0.0279
     76 H         10.715189   3.702154   -4.658933 H        1 UNL1     0.0279
     77 H         11.83516   3.927072   -3.255233 H        1 UNL1     0.0279
     78 H         8.954986   5.034519   -4.9906 H        1 UNL1     0.1553
     79 H         7.707968   3.532277   -4.65231 H        1 UNL1     0.1484
     80 H         3.971154   2.855214   -4.783857 H        1 UNL1     0.0317
     81 H         4.672746   4.403861   -5.230384 H        1 UNL1     0.0317
     82 H         6.603882   3.269003   -6.360213 H        1 UNL1     0.0428
     83 H         5.055294   2.770392   -7.004392 H        1 UNL1     0.0428
     84 H         6.899323   0.131185   -4.222795 H        1 UNL1     0.0428
     85 H         7.778563   1.565992   -4.619518 H        1 UNL1     0.0428
     86 H         6.494048   1.581994   -2.480683 H        1 UNL1     0.0317
     87 H         4.99976   1.335358   -3.260827 H        1 UNL1     0.0317
     88 H         7.22384   1.10835   -7.396356 H        1 UNL1     0.0429
     89 H         6.894325   -0.398427   -6.537707 H        1 UNL1     0.0429
     90 H         4.33387   0.37635   -7.320125 H        1 UNL1     0.0308
     91 H         6.249173   1.269149   -9.553807 H        1 UNL1     0.0233
     92 H         4.483808   1.086394   -9.713753 H        1 UNL1     0.0233
     93 H         5.151714   2.324731   -8.672107 H        1 UNL1     0.0233
     94 H         4.647799   -1.281469   -9.194114 H        1 UNL1     0.0233
     95 H         6.350023   -1.378166   -8.717237 H        1 UNL1     0.0233
     96 H         5.077638   -1.858522   -7.570814 H        1 UNL1     0.0233
     97 H         3.931899   10.58072   0.031602 H        1 UNL1     0.0280
     98 H         5.527943   11.233013   -0.222059 H        1 UNL1     0.0280
     99 H         4.34721   11.229346   -1.56578 H        1 UNL1     0.0280
     100 H         6.465665   10.873479   -2.88906 H        1 UNL1     0.2922
     101 H         4.70143   0.923565   2.426346 H        1 UNL1     0.0236
     102 H         5.989965   2.187822   2.512347 H        1 UNL1     0.0236
     103 H         6.325458   0.594608   1.908517 H        1 UNL1     0.0236
     104 H         4.356531   -0.511809   1.247959 H        1 UNL1     0.2098
     105 H         0.708663   1.282569   -0.929302 H        1 UNL1     0.0234
     106 H         1.290946   -0.404148   -1.013126 H        1 UNL1     0.0234
     107 H         0.0   -0.0   0.0 H        1 UNL1     0.0234
     108 H         1.154175   3.234748   1.787556 H        1 UNL1     0.2098
     109 H         1.023263   3.05781   -0.813608 H        1 UNL1     0.0234
     110 H         -0.223817   2.333672   -1.878135 H        1 UNL1     0.0234
     111 H         -0.004757   4.047845   -1.828477 H        1 UNL1     0.0234
     112 H         -3.552809   -1.628267   1.441155 H        1 UNL1     0.0342
     113 H         -3.20752   -0.00257   2.131172 H        1 UNL1     0.0342
     114 H         -4.406798   -0.192396   0.849115 H        1 UNL1     0.0342
     115 H         -2.670724   1.82673   3.346388 H        1 UNL1     0.0234
     116 H         -1.160386   1.812953   4.262615 H        1 UNL1     0.0234
     117 H         -1.667637   3.198607   3.274532 H        1 UNL1     0.0234
     118 H         0.793163   7.687949   -0.669454 H        1 UNL1     0.0309
     119 H         2.05591   7.832388   -1.931464 H        1 UNL1     0.0309
     120 H         1.330719   6.291625   -1.528595 H        1 UNL1     0.0309
     121 H         -0.406418   6.204539   2.901003 H        1 UNL1     0.0524
     122 H         -2.143513   5.958257   2.680314 H        1 UNL1     0.0524
     123 H         -1.321093   5.228209   4.081883 H        1 UNL1     0.0524
@<TRIPOS>BOND
     1     1     2    1
     2     1    42    1
     3     2     3    2
     4     3     4    1
     5     4     5    2
     6     5     7    1
     7     6    75    1
     8     6    76    1
     9     6    77    1
    10     7     9   am
    11     9    10    1
    12    10    11    2
    13    10    43    1
    14    11    14    1
    15    11    15    1
    16    12    13   ar
    17    12    27   ar
    18    12    43    1
    19    13    14    1
    20    13    30   ar
    21    14    17    2
    22    15    16    1
    23    16    17    1
    24    16    18    1
    25    16    22    1
    26    18    19    1
    27    19    20    1
    28    20    21    1
    29    21    22    1
    30    23    24    1
    31    23    88    1
    32    23    89    1
    33    24    25    1
    34    24    26    1
    35    24    90    1
    36    25    91    1
    37    25    92    1
    38    25    93    1
    39    26    94    1
    40    26    95    1
    41    26    96    1
    42    27    28   ar
    43    28    29   ar
    44    29    30   ar
    45    29    31    1
    46    30    33    1
    47    31    32    1
    48    32    33    1
    49    32    35    1
    50    34    97    1
    51    34    98    1
    52    34    99    1
    53    35    61    1
    54    36    37    1
    55    36    60    1
    56    37    38    1
    57    38    39    1
    58    39    40    1
    59    40    41    1
    60    41    42    1
    61    45   100    1
    62    47   101    1
    63    47   102    1
    64    47   103    1
    65    48   104    1
    66    49   105    1
    67    49   106    1
    68    49   107    1
    69    50   108    1
    70    51    59    1
    71    52   109    1
    72    52   110    1
    73    52   111    1
    74    53    54    1
    75    54    55    2
    76    54    56    1
    77    56   112    1
    78    56   113    1
    79    56   114    1
    80    57   115    1
    81    57   116    1
    82    57   117    1
    83    58   118    1
    84    58   119    1
    85    58   120    1
    86    59   121    1
    87    59   122    1
    88    59   123    1
    89    60    61    2
    90     1    47    1
    91     1    62    1
    92     2    63    1
    93     3    64    1
    94     4    65    1
    95     5     6    1
    96     7     8    2
    97     9    78    1
    98    15    79    1
    99    18    80    1
   100    18    81    1
   101    19    82    1
   102    19    83    1
   103    20    23    1
   104    21    84    1
   105    21    85    1
   106    22    86    1
   107    22    87    1
   108    27    45    1
   109    28    34    1
   110    32    58    1
   111    33    46    2
   112    36    51    1
   113    36    66    1
   114    37    52    1
   115    37    67    1
   116    38    53    1
   117    38    68    1
   118    42    48    1
   119    42    72    1
   120    43    44    2
   121    60    73    1
   122    61    74    1
   123    39    69    1
   124    39    57    1
   125    40    70    1
   126    40    50    1
   127    41    71    1
   128    41    49    1
