@<TRIPOS>MOLECULE
*****
 123 128 0 0 0
SMALL
GASTEIGER

@<TRIPOS>ATOM
     1 C         5.030777   2.097759   0.538735 C.3        1 UNL1     0.0009
     2 C         6.462629   2.897549   -0.325657 C.2        1 UNL1     -0.0787
     3 C         7.780559   2.809076   -0.918344 C.2        1 UNL1     -0.0649
     4 C         8.626185   4.010831   -1.759212 C.2        1 UNL1     -0.0542
     5 C         9.675475   4.266627   -2.676074 C.2        1 UNL1     0.0115
     6 C         10.879589   3.624868   -3.418758 C.3        1 UNL1     -0.0348
     7 C         9.719839   5.682877   -3.430565 C.2        1 UNL1     0.2441
     8 O         10.476526   6.587116   -3.104521 O.2        1 UNL1     -0.2702
     9 N         9.020625   5.723038   -4.649432 N.am        1 UNL1     -0.2772
     10 C         7.704052   6.0618   -4.436836 C.2        1 UNL1     0.1049
     11 C         6.89931   5.07623   -4.082909 C.2        1 UNL1     0.0801
     12 C         6.247948   7.723451   -3.2638 C.ar        1 UNL1     0.0753
     13 C         5.53032   6.603678   -2.734908 C.ar        1 UNL1     0.0305
     14 C         5.752291   5.2481   -3.233095 C.2        1 UNL1     0.0924
     15 N         7.103192   3.74777   -4.095301 N.pl3        1 UNL1     -0.3170
     16 C         5.853879   3.108504   -3.777797 C.3        1 UNL1     0.1275
     17 N         5.116053   4.119095   -2.93397 N.2        1 UNL1     -0.2557
     18 C         5.065291   2.98609   -5.078122 C.3        1 UNL1     0.0016
     19 C         5.913938   2.236607   -6.092845 C.3        1 UNL1     0.0026
     20 N         6.239566   0.924172   -5.552005 N.3        1 UNL1     -0.3018
     21 C         6.94577   0.938088   -4.269253 C.3        1 UNL1     0.0026
     22 C         6.073363   1.691733   -3.263858 C.3        1 UNL1     0.0016
     23 C         6.785234   0.023428   -6.547771 C.3        1 UNL1     0.0012
     24 C         5.697454   -0.394701   -7.549599 C.3        1 UNL1     -0.0339
     25 C         5.965615   0.188394   -8.946792 C.3        1 UNL1     -0.0615
     26 C         5.579651   -1.908427   -7.588784 C.3        1 UNL1     -0.0615
     27 C         5.946046   9.025151   -2.87067 C.ar        1 UNL1     0.1347
     28 C         4.925391   9.333427   -1.989035 C.ar        1 UNL1     0.0342
     29 C         4.264789   8.211962   -1.443979 C.ar        1 UNL1     0.1435
     30 C         4.580463   6.900427   -1.800978 C.ar        1 UNL1     0.0774
     31 O         3.176539   8.349498   -0.655436 O.3        1 UNL1     -0.4436
     32 C         2.53235   7.067332   -0.699533 C.3        1 UNL1     0.3143
     33 C         3.625023   6.087801   -1.077417 C.2        1 UNL1     0.2504
     34 C         4.381664   10.708084   -1.715578 C.3        1 UNL1     -0.0327
     35 O         2.129078   6.747017   0.637636 O.2        1 UNL1     -0.4528
     36 C         -0.977532   4.592283   0.299725 C.3        1 UNL1     0.0854
     37 C         -1.166112   3.230186   -0.472707 C.3        1 UNL1     0.0236
     38 C         -1.735868   2.02272   0.415635 C.3        1 UNL1     0.1131
     39 C         -1.049874   1.672839   1.797396 C.3        1 UNL1     0.0200
     40 C         0.612494   1.632732   1.929161 C.3        1 UNL1     0.0661
     41 C         1.671788   0.807311   0.892733 C.3        1 UNL1     0.0091
     42 C         3.383516   1.212407   0.371878 C.3        1 UNL1     0.0661
     43 C         7.264479   7.459516   -4.312257 C.2        1 UNL1     0.2131
     44 O         7.650611   8.301611   -5.10252 O.2        1 UNL1     -0.2851
     45 O         6.722423   10.054848   -3.398305 O.3        1 UNL1     -0.5056
     46 O         3.700718   4.907201   -0.819916 O.2        1 UNL1     -0.2836
     47 C         5.375668   1.84279   2.030721 C.3        1 UNL1     -0.0566
     48 O         3.904539   -0.153229   0.622259 O.3        1 UNL1     -0.3909
     49 C         0.916688   0.398851   -0.352449 C.3        1 UNL1     -0.0577
     50 O         1.123473   2.918435   2.218284 O.3        1 UNL1     -0.3910
     51 O         -1.162442   4.539229   1.696301 O.3        1 UNL1     -0.3753
     52 C         -0.056424   3.015595   -1.553212 C.3        1 UNL1     -0.0564
     53 O         -2.233016   0.86246   -0.396132 O.3        1 UNL1     -0.4608
     54 C         -2.102268   -0.458962   -0.057488 C.2        1 UNL1     0.3042
     55 O         -1.298044   -1.270798   -0.513541 O.2        1 UNL1     -0.2512
     56 C         -3.034425   -0.894341   1.037155 C.3        1 UNL1     0.0332
     57 C         -1.870748   2.423   2.947005 C.3        1 UNL1     -0.0567
     58 C         1.502516   7.134608   -1.851248 C.3        1 UNL1     0.0210
     59 C         -2.359022   5.15813   2.166432 C.3        1 UNL1     0.0372
     60 C         0.324794   5.273378   0.064739 C.2        1 UNL1     -0.0208
     61 C         1.16631   5.849772   0.92402 C.2        1 UNL1     0.0882
     62 H         4.497357   3.055192   0.500045 H        1 UNL1     0.0365
     63 H         6.133507   3.938608   -0.344238 H        1 UNL1     0.0576
     64 H         8.301698   1.854015   -1.015206 H        1 UNL1     0.0615
     65 H         8.072069   4.925933   -1.533325 H        1 UNL1     0.0622
     66 H         -1.745319   5.256772   -0.120993 H        1 UNL1     0.0645
     67 H         -2.014801   3.422438   -1.151917 H        1 UNL1     0.0362
     68 H         -2.722478   2.435471   0.67594 H        1 UNL1     0.0741
     69 H         -1.33466   0.668985   2.083021 H        1 UNL1     0.0359
     70 H         0.715051   1.07425   2.879235 H        1 UNL1     0.0600
     71 H         1.749671   -0.160163   1.42648 H        1 UNL1     0.0348
     72 H         3.200524   1.791276   1.288797 H        1 UNL1     0.0602
     73 H         0.48483   5.369979   -0.980395 H        1 UNL1     0.0628
     74 H         1.105364   5.749319   2.008194 H        1 UNL1     0.1022
     75 H         11.508082   3.034238   -2.709401 H        1 UNL1     0.0279
     76 H         10.641414   2.89219   -4.186564 H        1 UNL1     0.0279
     77 H         11.602874   4.370566   -3.779996 H        1 UNL1     0.0279
     78 H         9.033878   4.801686   -5.081879 H        1 UNL1     0.1553
     79 H         7.821994   3.299589   -4.633252 H        1 UNL1     0.1484
     80 H         4.123876   2.460599   -4.877213 H        1 UNL1     0.0317
     81 H         4.796015   3.974003   -5.466928 H        1 UNL1     0.0317
     82 H         6.825365   2.794807   -6.352897 H        1 UNL1     0.0428
     83 H         5.33344   2.162163   -7.012915 H        1 UNL1     0.0428
     84 H         7.107438   -0.058473   -3.846711 H        1 UNL1     0.0428
     85 H         7.957937   1.354967   -4.364359 H        1 UNL1     0.0428
     86 H         6.555385   1.567467   -2.311912 H        1 UNL1     0.0317
     87 H         5.116658   1.171265   -3.133763 H        1 UNL1     0.0317
     88 H         7.576246   0.555272   -7.092506 H        1 UNL1     0.0429
     89 H         7.250767   -0.853528   -6.079797 H        1 UNL1     0.0429
     90 H         4.725695   -0.027634   -7.198659 H        1 UNL1     0.0308
     91 H         7.011156   0.054045   -9.239874 H        1 UNL1     0.0233
     92 H         5.32079   -0.282807   -9.692298 H        1 UNL1     0.0233
     93 H         5.756644   1.263837   -8.997658 H        1 UNL1     0.0233
     94 H         5.120558   -2.227282   -8.530804 H        1 UNL1     0.0233
     95 H         6.572758   -2.362199   -7.527189 H        1 UNL1     0.0233
     96 H         4.968704   -2.282655   -6.762548 H        1 UNL1     0.0233
     97 H         4.959818   11.481264   -2.21273 H        1 UNL1     0.0280
     98 H         3.351244   10.824781   -2.075956 H        1 UNL1     0.0280
     99 H         4.402776   10.904293   -0.631073 H        1 UNL1     0.0280
     100 H         7.651121   9.914529   -3.339546 H        1 UNL1     0.2922
     101 H         5.03584   2.683298   2.635468 H        1 UNL1     0.0236
     102 H         6.429447   1.620282   2.195109 H        1 UNL1     0.0236
     103 H         4.837499   0.970098   2.436893 H        1 UNL1     0.0236
     104 H         3.473726   -0.489342   1.432443 H        1 UNL1     0.2098
     105 H         0.685092   1.219542   -1.02672 H        1 UNL1     0.0234
     106 H         1.361977   -0.429052   -0.90401 H        1 UNL1     0.0234
     107 H         0.0   -0.0   0.0 H        1 UNL1     0.0234
     108 H         2.07381   2.910218   1.99343 H        1 UNL1     0.2098
     109 H         -0.06244   3.804682   -2.318076 H        1 UNL1     0.0234
     110 H         0.948403   2.926645   -1.126418 H        1 UNL1     0.0234
     111 H         -0.198756   2.072673   -2.09781 H        1 UNL1     0.0234
     112 H         -2.864715   -1.949338   1.272794 H        1 UNL1     0.0342
     113 H         -2.93826   -0.274769   1.927506 H        1 UNL1     0.0342
     114 H         -4.065207   -0.792717   0.670649 H        1 UNL1     0.0342
     115 H         -2.946367   2.206699   2.888309 H        1 UNL1     0.0234
     116 H         -1.541492   2.17899   3.958982 H        1 UNL1     0.0234
     117 H         -1.868396   3.52176   2.843748 H        1 UNL1     0.0234
     118 H         1.253343   6.133136   -2.243641 H        1 UNL1     0.0309
     119 H         0.578135   7.649824   -1.571473 H        1 UNL1     0.0309
     120 H         1.889073   7.661395   -2.730551 H        1 UNL1     0.0309
     121 H         -2.187617   5.466457   3.197408 H        1 UNL1     0.0524
     122 H         -2.617948   6.060969   1.588611 H        1 UNL1     0.0524
     123 H         -3.188419   4.458275   2.117458 H        1 UNL1     0.0524
@<TRIPOS>BOND
     1     1     2    1
     2     1    42    1
     3     2     3    2
     4     3     4    1
     5     4     5    2
     6     5     7    1
     7     6    75    1
     8     6    76    1
     9     6    77    1
    10     7     9   am
    11     9    10    1
    12    10    11    2
    13    10    43    1
    14    11    14    1
    15    11    15    1
    16    12    13   ar
    17    12    27   ar
    18    12    43    1
    19    13    14    1
    20    13    30   ar
    21    14    17    2
    22    15    16    1
    23    16    17    1
    24    16    18    1
    25    16    22    1
    26    18    19    1
    27    19    20    1
    28    20    21    1
    29    21    22    1
    30    23    24    1
    31    23    88    1
    32    23    89    1
    33    24    25    1
    34    24    26    1
    35    24    90    1
    36    25    91    1
    37    25    92    1
    38    25    93    1
    39    26    94    1
    40    26    95    1
    41    26    96    1
    42    27    28   ar
    43    28    29   ar
    44    29    30   ar
    45    29    31    1
    46    30    33    1
    47    31    32    1
    48    32    33    1
    49    32    35    1
    50    34    97    1
    51    34    98    1
    52    34    99    1
    53    35    61    1
    54    36    37    1
    55    36    60    1
    56    37    38    1
    57    38    39    1
    58    39    40    1
    59    40    41    1
    60    41    42    1
    61    45   100    1
    62    47   101    1
    63    47   102    1
    64    47   103    1
    65    48   104    1
    66    49   105    1
    67    49   106    1
    68    49   107    1
    69    50   108    1
    70    51    59    1
    71    52   109    1
    72    52   110    1
    73    52   111    1
    74    53    54    1
    75    54    55    2
    76    54    56    1
    77    56   112    1
    78    56   113    1
    79    56   114    1
    80    57   115    1
    81    57   116    1
    82    57   117    1
    83    58   118    1
    84    58   119    1
    85    58   120    1
    86    59   121    1
    87    59   122    1
    88    59   123    1
    89    60    61    2
    90     1    47    1
    91     1    62    1
    92     2    63    1
    93     3    64    1
    94     4    65    1
    95     5     6    1
    96     7     8    2
    97     9    78    1
    98    15    79    1
    99    18    80    1
   100    18    81    1
   101    19    82    1
   102    19    83    1
   103    20    23    1
   104    21    84    1
   105    21    85    1
   106    22    86    1
   107    22    87    1
   108    27    45    1
   109    28    34    1
   110    32    58    1
   111    33    46    2
   112    36    51    1
   113    36    66    1
   114    37    52    1
   115    37    67    1
   116    38    53    1
   117    38    68    1
   118    42    48    1
   119    42    72    1
   120    43    44    2
   121    60    73    1
   122    61    74    1
   123    39    69    1
   124    39    57    1
   125    40    70    1
   126    40    50    1
   127    41    71    1
   128    41    49    1
