@<TRIPOS>MOLECULE
*****
 123 128 0 0 0
SMALL
GASTEIGER

@<TRIPOS>ATOM
     1 C         0.764032   -0.295463   4.416321 C.3        1 UNL1     0.0009
     2 C         0.641899   0.88771   5.838369 C.2        1 UNL1     -0.0787
     3 C         1.20518   1.958717   6.633168 C.2        1 UNL1     -0.0649
     4 C         0.47381   2.808671   7.901645 C.2        1 UNL1     -0.0542
     5 C         0.506138   3.995425   8.674722 C.2        1 UNL1     0.0115
     6 C         1.341971   5.265754   8.992484 C.3        1 UNL1     -0.0348
     7 C         -0.795024   4.407881   9.519616 C.2        1 UNL1     0.2441
     8 O         -0.88636   4.235694   10.727314 O.2        1 UNL1     -0.2702
     9 N         -1.714675   5.21549   8.828125 N.am        1 UNL1     -0.2772
     10 C         -2.612242   4.435998   8.135242 C.2        1 UNL1     0.1049
     11 C         -2.212   3.995778   6.95616 C.2        1 UNL1     0.0801
     12 C         -4.14752   2.477381   8.388369 C.ar        1 UNL1     0.0753
     13 C         -3.53038   1.941502   7.213388 C.ar        1 UNL1     0.0305
     14 C         -2.634156   2.745417   6.385406 C.2        1 UNL1     0.0924
     15 N         -1.147217   4.351666   6.217169 N.pl3        1 UNL1     -0.3170
     16 C         -1.260956   3.699143   4.939854 C.3        1 UNL1     0.1275
     17 N         -2.058344   2.449584   5.223575 N.2        1 UNL1     -0.2557
     18 C         -2.147245   4.576674   4.061142 C.3        1 UNL1     0.0016
     19 C         -1.54497   5.971441   4.002166 C.3        1 UNL1     0.0026
     20 N         -0.197457   5.876455   3.457909 N.3        1 UNL1     -0.3018
     21 C         0.713315   5.003601   4.201541 C.3        1 UNL1     0.0026
     22 C         0.090873   3.606955   4.244437 C.3        1 UNL1     0.0016
     23 C         0.350837   7.164256   3.081631 C.3        1 UNL1     0.0012
     24 C         -0.770971   8.122116   2.650578 C.3        1 UNL1     -0.0339
     25 C         -1.844868   8.258059   3.742512 C.3        1 UNL1     -0.0615
     26 C         -0.186296   9.471364   2.270494 C.3        1 UNL1     -0.0615
     27 C         -5.09285   1.74668   9.104294 C.ar        1 UNL1     0.1347
     28 C         -5.528996   0.490751   8.721583 C.ar        1 UNL1     0.0342
     29 C         -4.871958   -0.036688   7.589649 C.ar        1 UNL1     0.1435
     30 C         -3.897065   0.669034   6.883419 C.ar        1 UNL1     0.0774
     31 O         -5.261365   -1.202019   7.028068 O.3        1 UNL1     -0.4436
     32 C         -4.719963   -1.162897   5.699074 C.3        1 UNL1     0.3143
     33 C         -3.555122   -0.196603   5.774133 C.2        1 UNL1     0.2504
     34 C         -6.711674   -0.242979   9.289925 C.3        1 UNL1     -0.0327
     35 O         -4.170918   -2.457658   5.424494 O.2        1 UNL1     -0.4528
     36 C         -4.507514   -2.957309   1.67681 C.3        1 UNL1     0.0854
     37 C         -3.949504   -2.068914   0.499142 C.3        1 UNL1     0.0236
     38 C         -3.039439   -2.850995   -0.564755 C.3        1 UNL1     0.1131
     39 C         -1.838075   -3.748311   -0.060953 C.3        1 UNL1     0.0200
     40 C         -0.820155   -3.199863   1.141329 C.3        1 UNL1     0.0661
     41 C         -0.053621   -1.687093   1.180864 C.3        1 UNL1     0.0091
     42 C         0.405674   -0.622552   2.602554 C.3        1 UNL1     0.0661
     43 C         -3.813649   3.872406   8.768756 C.2        1 UNL1     0.2131
     44 O         -4.524313   4.566432   9.473044 O.2        1 UNL1     -0.2851
     45 O         -5.611661   2.322608   10.262128 O.3        1 UNL1     -0.5056
     46 O         -2.558637   -0.162818   5.087307 O.2        1 UNL1     -0.2836
     47 C         1.750217   -1.445584   4.754909 C.3        1 UNL1     -0.0566
     48 O         1.782849   -0.369184   2.114384 O.3        1 UNL1     -0.3909
     49 C         -0.692908   -0.788881   0.145479 C.3        1 UNL1     -0.0577
     50 O         -1.339065   -3.512106   2.41842 O.3        1 UNL1     -0.3910
     51 O         -4.003523   -4.271926   1.748951 O.3        1 UNL1     -0.3753
     52 C         -3.611772   -0.61806   0.97444 C.3        1 UNL1     -0.0564
     53 O         -2.816207   -2.089699   -1.838695 O.3        1 UNL1     -0.4608
     54 C         -1.847274   -2.362442   -2.768593 C.2        1 UNL1     0.3042
     55 O         -1.870735   -3.232142   -3.638598 O.2        1 UNL1     -0.2512
     56 C         -0.673268   -1.427302   -2.70585 C.3        1 UNL1     0.0332
     57 C         -2.37017   -5.253123   0.041966 C.3        1 UNL1     -0.0567
     58 C         -5.817727   -0.551856   4.797367 C.3        1 UNL1     0.0210
     59 C         -4.584245   -5.081272   2.770512 C.3        1 UNL1     0.0372
     60 C         -4.360351   -2.366067   3.034726 C.2        1 UNL1     -0.0208
     61 C         -3.950654   -2.917493   4.17789 C.2        1 UNL1     0.0882
     62 H         -0.240248   -0.662382   4.660252 H        1 UNL1     0.0365
     63 H         -0.299353   0.567085   6.289714 H        1 UNL1     0.0576
     64 H         2.145532   2.441808   6.358451 H        1 UNL1     0.0615
     65 H         -0.403718   2.204796   8.148146 H        1 UNL1     0.0622
     66 H         -5.588931   -3.016407   1.489479 H        1 UNL1     0.0645
     67 H         -4.842392   -1.834501   -0.106135 H        1 UNL1     0.0362
     68 H         -3.785083   -3.557234   -0.960689 H        1 UNL1     0.0741
     69 H         -1.160011   -3.917677   -0.886756 H        1 UNL1     0.0359
     70 H         0.026767   -3.8999   1.008172 H        1 UNL1     0.0600
     71 H         0.903587   -1.942427   0.68537 H        1 UNL1     0.0348
     72 H         0.26068   -1.632023   3.013967 H        1 UNL1     0.0602
     73 H         -4.766238   -1.384994   3.034349 H        1 UNL1     0.0628
     74 H         -3.470314   -3.893538   4.254355 H        1 UNL1     0.1022
     75 H         2.022214   5.510476   8.141358 H        1 UNL1     0.0279
     76 H         0.786639   6.19194   9.122307 H        1 UNL1     0.0279
     77 H         2.06308   5.107419   9.807733 H        1 UNL1     0.0279
     78 H         -1.221254   5.791492   8.149277 H        1 UNL1     0.1553
     79 H         -0.640075   5.20773   6.347145 H        1 UNL1     0.1484
     80 H         -2.217127   4.128041   3.062838 H        1 UNL1     0.0317
     81 H         -3.16769   4.622193   4.456455 H        1 UNL1     0.0317
     82 H         -1.539612   6.454709   4.990263 H        1 UNL1     0.0428
     83 H         -2.193501   6.581015   3.372184 H        1 UNL1     0.0428
     84 H         1.693199   4.886927   3.728227 H        1 UNL1     0.0428
     85 H         0.944268   5.407006   5.197153 H        1 UNL1     0.0428
     86 H         0.839873   2.969284   4.676134 H        1 UNL1     0.0317
     87 H         -0.02012   3.214745   3.22613 H        1 UNL1     0.0317
     88 H         0.855993   7.58979   3.958576 H        1 UNL1     0.0429
     89 H         1.107613   7.060527   2.293403 H        1 UNL1     0.0429
     90 H         -1.244869   7.734119   1.741132 H        1 UNL1     0.0308
     91 H         -2.630852   7.506339   3.623139 H        1 UNL1     0.0233
     92 H         -1.400767   8.157993   4.735674 H        1 UNL1     0.0233
     93 H         -2.336721   9.238163   3.72482 H        1 UNL1     0.0233
     94 H         -0.989844   10.186742   2.064626 H        1 UNL1     0.0233
     95 H         0.412293   9.865285   3.096617 H        1 UNL1     0.0233
     96 H         0.445678   9.396174   1.381155 H        1 UNL1     0.0233
     97 H         -6.512034   -1.303095   9.414536 H        1 UNL1     0.0280
     98 H         -6.990742   0.129199   10.28434 H        1 UNL1     0.0280
     99 H         -7.575099   -0.131073   8.613857 H        1 UNL1     0.0280
     100 H         -5.090909   3.020191   10.619644 H        1 UNL1     0.2922
     101 H         1.537199   -1.83104   5.751756 H        1 UNL1     0.0236
     102 H         2.795751   -1.161134   4.6412 H        1 UNL1     0.0236
     103 H         1.620546   -2.312695   4.085957 H        1 UNL1     0.0236
     104 H         2.129605   -1.211135   1.759633 H        1 UNL1     0.2098
     105 H         -0.863282   -1.263867   -0.817419 H        1 UNL1     0.0234
     106 H         -1.596168   -0.279035   0.480303 H        1 UNL1     0.0234
     107 H         0.0   0.0   0.0 H        1 UNL1     0.0234
     108 H         -1.054189   -4.421276   2.632947 H        1 UNL1     0.2098
     109 H         -2.528862   -0.436   1.017691 H        1 UNL1     0.0234
     110 H         -4.08952   0.156635   0.365057 H        1 UNL1     0.0234
     111 H         -3.986032   -0.427139   1.989046 H        1 UNL1     0.0234
     112 H         0.256598   -1.987671   -2.842532 H        1 UNL1     0.0342
     113 H         -0.753376   -0.620088   -3.432371 H        1 UNL1     0.0342
     114 H         -0.649108   -0.973593   -1.705485 H        1 UNL1     0.0342
     115 H         -3.074893   -5.493279   -0.766043 H        1 UNL1     0.0234
     116 H         -1.579558   -6.005856   0.022642 H        1 UNL1     0.0234
     117 H         -2.995423   -5.438723   0.932221 H        1 UNL1     0.0234
     118 H         -5.391452   0.001079   3.942056 H        1 UNL1     0.0309
     119 H         -6.5301   -1.294609   4.42448 H        1 UNL1     0.0309
     120 H         -6.414118   0.20646   5.316386 H        1 UNL1     0.0309
     121 H         -5.666901   -4.989038   2.688621 H        1 UNL1     0.0524
     122 H         -4.332131   -6.148331   2.652781 H        1 UNL1     0.0524
     123 H         -4.252502   -4.746509   3.749273 H        1 UNL1     0.0524
@<TRIPOS>BOND
     1     1     2    1
     2     1    42    1
     3     2     3    2
     4     3     4    1
     5     4     5    2
     6     5     7    1
     7     6    75    1
     8     6    76    1
     9     6    77    1
    10     7     9   am
    11     9    10    1
    12    10    11    2
    13    10    43    1
    14    11    14    1
    15    11    15    1
    16    12    13   ar
    17    12    27   ar
    18    12    43    1
    19    13    14    1
    20    13    30   ar
    21    14    17    2
    22    15    16    1
    23    16    17    1
    24    16    18    1
    25    16    22    1
    26    18    19    1
    27    19    20    1
    28    20    21    1
    29    21    22    1
    30    23    24    1
    31    23    88    1
    32    23    89    1
    33    24    25    1
    34    24    26    1
    35    24    90    1
    36    25    91    1
    37    25    92    1
    38    25    93    1
    39    26    94    1
    40    26    95    1
    41    26    96    1
    42    27    28   ar
    43    28    29   ar
    44    29    30   ar
    45    29    31    1
    46    30    33    1
    47    31    32    1
    48    32    33    1
    49    32    35    1
    50    34    97    1
    51    34    98    1
    52    34    99    1
    53    35    61    1
    54    36    37    1
    55    36    60    1
    56    37    38    1
    57    38    39    1
    58    39    40    1
    59    40    41    1
    60    41    42    1
    61    45   100    1
    62    47   101    1
    63    47   102    1
    64    47   103    1
    65    48   104    1
    66    49   105    1
    67    49   106    1
    68    49   107    1
    69    50   108    1
    70    51    59    1
    71    52   109    1
    72    52   110    1
    73    52   111    1
    74    53    54    1
    75    54    55    2
    76    54    56    1
    77    56   112    1
    78    56   113    1
    79    56   114    1
    80    57   115    1
    81    57   116    1
    82    57   117    1
    83    58   118    1
    84    58   119    1
    85    58   120    1
    86    59   121    1
    87    59   122    1
    88    59   123    1
    89    60    61    2
    90     1    47    1
    91     1    62    1
    92     2    63    1
    93     3    64    1
    94     4    65    1
    95     5     6    1
    96     7     8    2
    97     9    78    1
    98    15    79    1
    99    18    80    1
   100    18    81    1
   101    19    82    1
   102    19    83    1
   103    20    23    1
   104    21    84    1
   105    21    85    1
   106    22    86    1
   107    22    87    1
   108    27    45    1
   109    28    34    1
   110    32    58    1
   111    33    46    2
   112    36    51    1
   113    36    66    1
   114    37    52    1
   115    37    67    1
   116    38    53    1
   117    38    68    1
   118    42    48    1
   119    42    72    1
   120    43    44    2
   121    60    73    1
   122    61    74    1
   123    39    69    1
   124    39    57    1
   125    40    70    1
   126    40    50    1
   127    41    71    1
   128    41    49    1
