@<TRIPOS>MOLECULE
*****
 123 128 0 0 0
SMALL
GASTEIGER

@<TRIPOS>ATOM
     1 C         5.167893   1.744301   0.499887 C.3        1 UNL1     0.0009
     2 C         6.60644   2.549762   -0.347963 C.2        1 UNL1     -0.0787
     3 C         7.889272   2.450961   -1.01176 C.2        1 UNL1     -0.0649
     4 C         8.768731   3.685785   -1.765497 C.2        1 UNL1     -0.0542
     5 C         9.790399   3.978106   -2.702418 C.2        1 UNL1     0.0115
     6 C         10.919495   3.352233   -3.566564 C.3        1 UNL1     -0.0348
     7 C         9.887691   5.461541   -3.308176 C.2        1 UNL1     0.2441
     8 O         10.711559   6.282468   -2.928905 O.2        1 UNL1     -0.2702
     9 N         9.139412   5.669497   -4.47992 N.am        1 UNL1     -0.2772
     10 C         7.856483   6.056935   -4.16798 C.2        1 UNL1     0.1049
     11 C         7.009581   5.085988   -3.877739 C.2        1 UNL1     0.0801
     12 C         6.557031   7.663913   -2.758589 C.ar        1 UNL1     0.0753
     13 C         5.79651   6.53634   -2.312722 C.ar        1 UNL1     0.0305
     14 C         5.913534   5.230819   -2.958456 C.2        1 UNL1     0.0924
     15 N         7.13153   3.75699   -4.037176 N.pl3        1 UNL1     -0.3170
     16 C         5.860777   3.158569   -3.725193 C.3        1 UNL1     0.1275
     17 N         5.22353   4.113847   -2.745865 N.2        1 UNL1     -0.2557
     18 C         5.009912   3.218736   -4.990148 C.3        1 UNL1     0.0016
     19 C         5.766055   2.534578   -6.117874 C.3        1 UNL1     0.0026
     20 N         6.034654   1.156135   -5.732157 N.3        1 UNL1     -0.3018
     21 C         6.795996   0.994716   -4.491725 C.3        1 UNL1     0.0026
     22 C         6.016005   1.685322   -3.371647 C.3        1 UNL1     0.0016
     23 C         6.480301   0.336738   -6.841495 C.3        1 UNL1     0.0012
     24 C         5.325077   0.084816   -7.823202 C.3        1 UNL1     -0.0339
     25 C         5.343626   1.092854   -8.984052 C.3        1 UNL1     -0.0615
     26 C         5.37187   -1.347614   -8.325928 C.3        1 UNL1     -0.0615
     27 C         6.352416   8.93153   -2.218778 C.ar        1 UNL1     0.1347
     28 C         5.39207   9.201354   -1.260143 C.ar        1 UNL1     0.0342
     29 C         4.689021   8.067204   -0.801244 C.ar        1 UNL1     0.1435
     30 C         4.908357   6.785228   -1.306863 C.ar        1 UNL1     0.0774
     31 O         3.6468   8.181146   0.050694 O.3        1 UNL1     -0.4436
     32 C         2.924492   6.948881   -0.093067 C.3        1 UNL1     0.3143
     33 C         3.937919   5.95529   -0.62406 C.2        1 UNL1     0.2504
     34 C         4.945498   10.56759   -0.819606 C.3        1 UNL1     -0.0327
     35 O         2.561538   6.511906   1.222444 O.2        1 UNL1     -0.4528
     36 C         -0.682227   4.582115   0.819977 C.3        1 UNL1     0.0854
     37 C         -0.987028   3.322098   -0.078342 C.3        1 UNL1     0.0236
     38 C         -1.589657   2.061156   0.708175 C.3        1 UNL1     0.1131
     39 C         -0.866257   1.529207   2.010477 C.3        1 UNL1     0.0200
     40 C         0.79477   1.382499   2.054127 C.3        1 UNL1     0.0661
     41 C         1.755395   0.613469   0.886479 C.3        1 UNL1     0.0091
     42 C         3.464091   0.97507   0.325228 C.3        1 UNL1     0.0661
     43 C         7.508642   7.455996   -3.878173 C.2        1 UNL1     0.2131
     44 O         7.910242   8.354081   -4.595738 O.2        1 UNL1     -0.2851
     45 O         7.166096   9.966257   -2.675619 O.3        1 UNL1     -0.5056
     46 O         3.952878   4.751694   -0.493732 O.2        1 UNL1     -0.2836
     47 C         5.561762   1.313987   1.938525 C.3        1 UNL1     -0.0566
     48 O         3.911556   -0.436377   0.407145 O.3        1 UNL1     -0.3909
     49 C         0.922941   0.381939   -0.354855 C.3        1 UNL1     -0.0577
     50 O         1.395209   2.599794   2.448324 O.3        1 UNL1     -0.3910
     51 O         -0.80857   4.391984   2.211134 O.3        1 UNL1     -0.3753
     52 C         0.059073   3.161353   -1.229334 C.3        1 UNL1     -0.0564
     53 O         -2.191604   1.02294   -0.192986 O.3        1 UNL1     -0.4608
     54 C         -2.415327   -0.287027   0.141477 C.2        1 UNL1     0.3042
     55 O         -1.843162   -1.280236   -0.305737 O.2        1 UNL1     -0.2512
     56 C         -3.446472   -0.464843   1.219362 C.3        1 UNL1     0.0332
     57 C         -1.588745   2.19821   3.270882 C.3        1 UNL1     -0.0567
     58 C         1.85112   7.195136   -1.178775 C.3        1 UNL1     0.0210
     59 C         -1.160704   5.562872   2.946586 C.3        1 UNL1     0.0372
     60 C         0.647553   5.210368   0.59163 C.2        1 UNL1     -0.0208
     61 C         1.559464   5.644633   1.462593 C.2        1 UNL1     0.0882
     62 H         4.692521   2.728769   0.58681 H        1 UNL1     0.0365
     63 H         6.340762   3.603705   -0.242657 H        1 UNL1     0.0576
     64 H         8.346593   1.48388   -1.232483 H        1 UNL1     0.0615
     65 H         8.281755   4.601385   -1.419068 H        1 UNL1     0.0622
     66 H         -1.425888   5.329278   0.508909 H        1 UNL1     0.0645
     67 H         -1.851431   3.632298   -0.690832 H        1 UNL1     0.0362
     68 H         -2.536959   2.498554   1.05864 H        1 UNL1     0.0741
     69 H         -1.198777   0.518264   2.204986 H        1 UNL1     0.0359
     70 H         0.904748   0.721754   2.935252 H        1 UNL1     0.0600
     71 H         1.79762   -0.40789   1.313094 H        1 UNL1     0.0348
     72 H         3.357059   1.462974   1.304926 H        1 UNL1     0.0602
     73 H         0.767161   5.407931   -0.444667 H        1 UNL1     0.0628
     74 H         1.540146   5.433573   2.532321 H        1 UNL1     0.1022
     75 H         10.962977   2.246866   -3.413902 H        1 UNL1     0.0279
     76 H         10.807559   3.435512   -4.645269 H        1 UNL1     0.0279
     77 H         11.924284   3.656115   -3.238301 H        1 UNL1     0.0279
     78 H         9.077605   4.799791   -5.005153 H        1 UNL1     0.1553
     79 H         7.79744   3.328772   -4.65372 H        1 UNL1     0.1484
     80 H         4.047997   2.728396   -4.79766 H        1 UNL1     0.0317
     81 H         4.784435   4.255749   -5.2611 H        1 UNL1     0.0317
     82 H         6.697462   3.065328   -6.364245 H        1 UNL1     0.0428
     83 H         5.142295   2.590494   -7.010537 H        1 UNL1     0.0428
     84 H         6.915122   -0.048436   -4.18277 H        1 UNL1     0.0428
     85 H         7.8265   1.362073   -4.59384 H        1 UNL1     0.0428
     86 H         6.530875   1.434256   -2.462878 H        1 UNL1     0.0317
     87 H         5.03604   1.208318   -3.248225 H        1 UNL1     0.0317
     88 H         7.275352   0.879554   -7.369263 H        1 UNL1     0.0429
     89 H         6.914536   -0.60812   -6.49013 H        1 UNL1     0.0429
     90 H         4.37229   0.184056   -7.289759 H        1 UNL1     0.0308
     91 H         6.292113   1.055436   -9.52818 H        1 UNL1     0.0233
     92 H         4.523587   0.896994   -9.678879 H        1 UNL1     0.0233
     93 H         5.213918   2.126641   -8.641568 H        1 UNL1     0.0233
     94 H         4.675297   -1.477694   -9.161213 H        1 UNL1     0.0233
     95 H         6.377148   -1.584838   -8.685239 H        1 UNL1     0.0233
     96 H         5.102398   -2.056164   -7.537695 H        1 UNL1     0.0233
     97 H         4.151003   10.518083   -0.080987 H        1 UNL1     0.0280
     98 H         5.757932   11.136894   -0.349392 H        1 UNL1     0.0280
     99 H         4.573531   11.132709   -1.689879 H        1 UNL1     0.0280
     100 H         6.700071   10.71705   -2.999274 H        1 UNL1     0.2922
     101 H         4.697884   0.880757   2.442193 H        1 UNL1     0.0236
     102 H         6.012221   2.118803   2.518474 H        1 UNL1     0.0236
     103 H         6.317456   0.510794   1.938271 H        1 UNL1     0.0236
     104 H         4.329677   -0.562982   1.281282 H        1 UNL1     0.2098
     105 H         0.712419   1.281022   -0.928564 H        1 UNL1     0.0234
     106 H         1.29236   -0.406603   -1.010338 H        1 UNL1     0.0234
     107 H         0.0   -0.0   0.0 H        1 UNL1     0.0234
     108 H         1.195771   3.259174   1.756074 H        1 UNL1     0.2098
     109 H         1.083252   3.047028   -0.847628 H        1 UNL1     0.0234
     110 H         -0.17291   2.334667   -1.90942 H        1 UNL1     0.0234
     111 H         0.081864   4.044395   -1.881763 H        1 UNL1     0.0234
     112 H         -3.572895   -1.528791   1.441575 H        1 UNL1     0.0342
     113 H         -3.198724   0.095566   2.119588 H        1 UNL1     0.0342
     114 H         -4.405544   -0.083121   0.843019 H        1 UNL1     0.0342
     115 H         -2.653169   1.930499   3.321085 H        1 UNL1     0.0234
     116 H         -1.138836   1.936998   4.230778 H        1 UNL1     0.0234
     117 H         -1.648362   3.298569   3.210897 H        1 UNL1     0.0234
     118 H         0.949759   7.682511   -0.767655 H        1 UNL1     0.0309
     119 H         2.222177   7.783178   -2.02419 H        1 UNL1     0.0309
     120 H         1.462551   6.263603   -1.604646 H        1 UNL1     0.0309
     121 H         -0.361535   6.290872   2.809832 H        1 UNL1     0.0524
     122 H         -2.094142   6.021909   2.580507 H        1 UNL1     0.0524
     123 H         -1.274546   5.324752   4.000357 H        1 UNL1     0.0524
@<TRIPOS>BOND
     1     1     2    1
     2     1    42    1
     3     2     3    2
     4     3     4    1
     5     4     5    2
     6     5     7    1
     7     6    75    1
     8     6    76    1
     9     6    77    1
    10     7     9   am
    11     9    10    1
    12    10    11    2
    13    10    43    1
    14    11    14    1
    15    11    15    1
    16    12    13   ar
    17    12    27   ar
    18    12    43    1
    19    13    14    1
    20    13    30   ar
    21    14    17    2
    22    15    16    1
    23    16    17    1
    24    16    18    1
    25    16    22    1
    26    18    19    1
    27    19    20    1
    28    20    21    1
    29    21    22    1
    30    23    24    1
    31    23    88    1
    32    23    89    1
    33    24    25    1
    34    24    26    1
    35    24    90    1
    36    25    91    1
    37    25    92    1
    38    25    93    1
    39    26    94    1
    40    26    95    1
    41    26    96    1
    42    27    28   ar
    43    28    29   ar
    44    29    30   ar
    45    29    31    1
    46    30    33    1
    47    31    32    1
    48    32    33    1
    49    32    35    1
    50    34    97    1
    51    34    98    1
    52    34    99    1
    53    35    61    1
    54    36    37    1
    55    36    60    1
    56    37    38    1
    57    38    39    1
    58    39    40    1
    59    40    41    1
    60    41    42    1
    61    45   100    1
    62    47   101    1
    63    47   102    1
    64    47   103    1
    65    48   104    1
    66    49   105    1
    67    49   106    1
    68    49   107    1
    69    50   108    1
    70    51    59    1
    71    52   109    1
    72    52   110    1
    73    52   111    1
    74    53    54    1
    75    54    55    2
    76    54    56    1
    77    56   112    1
    78    56   113    1
    79    56   114    1
    80    57   115    1
    81    57   116    1
    82    57   117    1
    83    58   118    1
    84    58   119    1
    85    58   120    1
    86    59   121    1
    87    59   122    1
    88    59   123    1
    89    60    61    2
    90     1    47    1
    91     1    62    1
    92     2    63    1
    93     3    64    1
    94     4    65    1
    95     5     6    1
    96     7     8    2
    97     9    78    1
    98    15    79    1
    99    18    80    1
   100    18    81    1
   101    19    82    1
   102    19    83    1
   103    20    23    1
   104    21    84    1
   105    21    85    1
   106    22    86    1
   107    22    87    1
   108    27    45    1
   109    28    34    1
   110    32    58    1
   111    33    46    2
   112    36    51    1
   113    36    66    1
   114    37    52    1
   115    37    67    1
   116    38    53    1
   117    38    68    1
   118    42    48    1
   119    42    72    1
   120    43    44    2
   121    60    73    1
   122    61    74    1
   123    39    69    1
   124    39    57    1
   125    40    70    1
   126    40    50    1
   127    41    71    1
   128    41    49    1
