@<TRIPOS>MOLECULE
*****
 123 128 0 0 0
SMALL
GASTEIGER

@<TRIPOS>ATOM
     1 C         3.385976   2.118875   -3.513186 C.3        1 UNL1     0.0009
     2 C         3.583856   2.7728   -5.23663 C.2        1 UNL1     -0.0787
     3 C         3.874558   2.553037   -6.637788 C.2        1 UNL1     -0.0649
     4 C         3.773738   3.667099   -7.908638 C.2        1 UNL1     -0.0542
     5 C         3.668162   3.819804   -9.313135 C.2        1 UNL1     0.0115
     6 C         3.734081   3.062544   -10.667954 C.3        1 UNL1     -0.0348
     7 C         3.180433   5.22928   -9.906843 C.2        1 UNL1     0.2441
     8 O         3.948402   6.048246   -10.392686 O.2        1 UNL1     -0.2702
     9 N         1.789387   5.350108   -10.069758 N.am        1 UNL1     -0.2772
     10 C         1.209715   5.821397   -8.914254 C.2        1 UNL1     0.1049
     11 C         0.956359   4.921627   -7.981277 C.2        1 UNL1     0.0801
     12 C         1.410821   7.616   -7.183275 C.ar        1 UNL1     0.0753
     13 C         1.340779   6.572505   -6.206126 C.ar        1 UNL1     0.0305
     14 C         0.978998   5.20486   -6.571794 C.2        1 UNL1     0.0924
     15 N         0.977472   3.579342   -8.047265 N.pl3        1 UNL1     -0.3170
     16 C         0.456609   3.070159   -6.806424 C.3        1 UNL1     0.1275
     17 N         0.7709   4.145428   -5.795117 N.2        1 UNL1     -0.2557
     18 C         -1.063499   3.03909   -6.932949 C.3        1 UNL1     0.0016
     19 C         -1.433026   2.213315   -8.154888 C.3        1 UNL1     0.0026
     20 N         -0.893204   0.870445   -7.992653 N.3        1 UNL1     -0.3018
     21 C         0.557073   0.802225   -7.801836 C.3        1 UNL1     0.0026
     22 C         0.905395   1.634658   -6.566676 C.3        1 UNL1     0.0016
     23 C         -1.435601   -0.074649   -8.948293 C.3        1 UNL1     0.0012
     24 C         -2.921585   0.216957   -9.210159 C.3        1 UNL1     -0.0339
     25 C         -3.153109   0.709522   -10.648155 C.3        1 UNL1     -0.0615
     26 C         -3.756341   -1.013256   -8.899454 C.3        1 UNL1     -0.0615
     27 C         1.63732   8.939057   -6.811339 C.ar        1 UNL1     0.1347
     28 C         1.768986   9.344696   -5.495219 C.ar        1 UNL1     0.0342
     29 C         1.745378   8.293517   -4.55414 C.ar        1 UNL1     0.1435
     30 C         1.55545   6.958998   -4.914981 C.ar        1 UNL1     0.0774
     31 O         1.750856   8.536975   -3.225342 O.3        1 UNL1     -0.4436
     32 C         1.251105   7.328482   -2.633171 C.3        1 UNL1     0.3143
     33 C         1.52313   6.24415   -3.656127 C.2        1 UNL1     0.2504
     34 C         1.761746   10.766132   -5.005761 C.3        1 UNL1     -0.0327
     35 O         2.070932   7.041928   -1.493423 O.2        1 UNL1     -0.4528
     36 C         -0.171103   5.221765   0.969984 C.3        1 UNL1     0.0854
     37 C         -0.995724   3.891966   0.772103 C.3        1 UNL1     0.0236
     38 C         -0.694884   2.743416   1.850097 C.3        1 UNL1     0.1131
     39 C         0.799058   2.314727   2.144429 C.3        1 UNL1     0.0200
     40 C         1.879559   2.10234   0.891494 C.3        1 UNL1     0.0661
     41 C         1.611251   1.179451   -0.506325 C.3        1 UNL1     0.0091
     42 C         2.224257   1.409458   -2.220012 C.3        1 UNL1     0.0661
     43 C         1.145177   7.256085   -8.59825 C.2        1 UNL1     0.2131
     44 O         0.791112   8.059472   -9.442018 O.2        1 UNL1     -0.2851
     45 O         1.736886   9.886889   -7.827774 O.3        1 UNL1     -0.5056
     46 O         1.696409   5.060228   -3.47131 O.2        1 UNL1     -0.2836
     47 C         4.774676   1.819   -2.887432 C.3        1 UNL1     -0.0566
     48 O         2.641147   -0.004411   -2.382158 O.3        1 UNL1     -0.3909
     49 C         0.136185   0.860022   -0.604513 C.3        1 UNL1     -0.0577
     50 O         2.498834   3.326344   0.550854 O.3        1 UNL1     -0.3910
     51 O         0.842797   5.17808   1.948518 O.3        1 UNL1     -0.3753
     52 C         -1.229169   3.571746   -0.740482 C.3        1 UNL1     -0.0564
     53 O         -1.719082   1.646495   1.860629 O.3        1 UNL1     -0.4608
     54 C         -1.494065   0.345031   1.495268 C.2        1 UNL1     0.3042
     55 O         -0.775369   -0.060986   0.582873 O.2        1 UNL1     -0.2512
     56 C         -2.184696   -0.655377   2.377836 C.3        1 UNL1     0.0332
     57 C         1.293716   3.137344   3.4238 C.3        1 UNL1     -0.0567
     58 C         -0.27828   7.509917   -2.493195 C.3        1 UNL1     0.0210
     59 C         1.16186   6.437815   2.537698 C.3        1 UNL1     0.0372
     60 C         0.450244   5.766493   -0.267901 C.2        1 UNL1     -0.0208
     61 C         1.676143   6.246801   -0.480555 C.2        1 UNL1     0.0882
     62 H         3.105235   3.126495   -3.183644 H        1 UNL1     0.0365
     63 H         3.444976   3.842371   -5.065751 H        1 UNL1     0.0576
     64 H         4.038939   1.550014   -7.037827 H        1 UNL1     0.0615
     65 H         3.691346   4.632859   -7.40267 H        1 UNL1     0.0622
     66 H         -0.917181   5.964934   1.284809 H        1 UNL1     0.0645
     67 H         -2.029312   4.175631   1.036283 H        1 UNL1     0.0362
     68 H         -1.037234   3.253903   2.76318 H        1 UNL1     0.0741
     69 H         0.794972   1.343602   2.621198 H        1 UNL1     0.0359
     70 H         2.668615   1.529469   1.415202 H        1 UNL1     0.0600
     71 H         2.022795   0.20531   -0.176724 H        1 UNL1     0.0348
     72 H         2.894717   1.997542   -1.576618 H        1 UNL1     0.0602
     73 H         -0.291985   5.853543   -1.022067 H        1 UNL1     0.0628
     74 H         2.507827   6.145414   0.217485 H        1 UNL1     0.1022
     75 H         4.113278   2.022958   -10.51794 H        1 UNL1     0.0279
     76 H         2.787439   2.895446   -11.17689 H        1 UNL1     0.0279
     77 H         4.493548   3.474208   -11.348722 H        1 UNL1     0.0279
     78 H         1.386952   4.435426   -10.263358 H        1 UNL1     0.1553
     79 H         0.936197   3.063239   -8.906838 H        1 UNL1     0.1484
     80 H         -1.489835   2.612131   -6.017139 H        1 UNL1     0.0317
     81 H         -1.469283   4.052275   -7.024853 H        1 UNL1     0.0317
     82 H         -1.069818   2.676326   -9.084196 H        1 UNL1     0.0428
     83 H         -2.521028   2.205762   -8.227305 H        1 UNL1     0.0428
     84 H         0.926245   -0.208698   -7.602943 H        1 UNL1     0.0428
     85 H         1.103049   1.113096   -8.703272 H        1 UNL1     0.0428
     86 H         1.947958   1.4545   -6.380682 H        1 UNL1     0.0317
     87 H         0.413307   1.214781   -5.680872 H        1 UNL1     0.0317
     88 H         -0.885518   0.039627   -9.891502 H        1 UNL1     0.0429
     89 H         -1.288173   -1.109467   -8.613345 H        1 UNL1     0.0429
     90 H         -3.262984   0.993779   -8.515748 H        1 UNL1     0.0308
     91 H         -3.184531   1.802228   -10.694068 H        1 UNL1     0.0233
     92 H         -2.366216   0.345126   -11.312703 H        1 UNL1     0.0233
     93 H         -4.099457   0.346186   -11.066781 H        1 UNL1     0.0233
     94 H         -4.812459   -0.817085   -9.113852 H        1 UNL1     0.0233
     95 H         -3.435164   -1.850554   -9.525346 H        1 UNL1     0.0233
     96 H         -3.664961   -1.302558   -7.848776 H        1 UNL1     0.0233
     97 H         1.763969   10.823679   -3.921366 H        1 UNL1     0.0280
     98 H         2.647747   11.322755   -5.338068 H        1 UNL1     0.0280
     99 H         0.859913   11.27976   -5.377217 H        1 UNL1     0.0280
     100 H         2.093651   9.559583   -8.634751 H        1 UNL1     0.2922
     101 H         4.669121   1.668276   -1.813283 H        1 UNL1     0.0236
     102 H         5.523127   2.574929   -3.122755 H        1 UNL1     0.0236
     103 H         5.202322   0.873986   -3.261947 H        1 UNL1     0.0236
     104 H         1.867201   -0.504694   -2.707265 H        1 UNL1     0.2098
     105 H         -0.518573   1.640491   -0.225076 H        1 UNL1     0.0234
     106 H         -0.194831   0.535732   -1.591017 H        1 UNL1     0.0234
     107 H         0.0   -0.0   0.0 H        1 UNL1     0.0234
     108 H         2.935303   3.199928   -0.313601 H        1 UNL1     0.2098
     109 H         -2.264027   3.264025   -0.945635 H        1 UNL1     0.0234
     110 H         -0.954925   4.399742   -1.403018 H        1 UNL1     0.0234
     111 H         -0.598661   2.739164   -1.079913 H        1 UNL1     0.0234
     112 H         -1.974542   -1.669889   2.025774 H        1 UNL1     0.0342
     113 H         -1.906308   -0.539419   3.424209 H        1 UNL1     0.0342
     114 H         -3.268201   -0.490045   2.301365 H        1 UNL1     0.0342
     115 H         2.009672   2.562452   4.027201 H        1 UNL1     0.0234
     116 H         1.761169   4.094152   3.182851 H        1 UNL1     0.0234
     117 H         0.49507   3.324815   4.162015 H        1 UNL1     0.0234
     118 H         -0.5798   7.695251   -1.447373 H        1 UNL1     0.0309
     119 H         -0.676021   8.308468   -3.127482 H        1 UNL1     0.0309
     120 H         -0.835097   6.604999   -2.759999 H        1 UNL1     0.0309
     121 H         1.154963   6.307046   3.619459 H        1 UNL1     0.0524
     122 H         2.166939   6.790568   2.252358 H        1 UNL1     0.0524
     123 H         0.429766   7.185445   2.245839 H        1 UNL1     0.0524
@<TRIPOS>BOND
     1     1     2    1
     2     1    42    1
     3     2     3    2
     4     3     4    1
     5     4     5    2
     6     5     7    1
     7     6    75    1
     8     6    76    1
     9     6    77    1
    10     7     9   am
    11     9    10    1
    12    10    11    2
    13    10    43    1
    14    11    14    1
    15    11    15    1
    16    12    13   ar
    17    12    27   ar
    18    12    43    1
    19    13    14    1
    20    13    30   ar
    21    14    17    2
    22    15    16    1
    23    16    17    1
    24    16    18    1
    25    16    22    1
    26    18    19    1
    27    19    20    1
    28    20    21    1
    29    21    22    1
    30    23    24    1
    31    23    88    1
    32    23    89    1
    33    24    25    1
    34    24    26    1
    35    24    90    1
    36    25    91    1
    37    25    92    1
    38    25    93    1
    39    26    94    1
    40    26    95    1
    41    26    96    1
    42    27    28   ar
    43    28    29   ar
    44    29    30   ar
    45    29    31    1
    46    30    33    1
    47    31    32    1
    48    32    33    1
    49    32    35    1
    50    34    97    1
    51    34    98    1
    52    34    99    1
    53    35    61    1
    54    36    37    1
    55    36    60    1
    56    37    38    1
    57    38    39    1
    58    39    40    1
    59    40    41    1
    60    41    42    1
    61    45   100    1
    62    47   101    1
    63    47   102    1
    64    47   103    1
    65    48   104    1
    66    49   105    1
    67    49   106    1
    68    49   107    1
    69    50   108    1
    70    51    59    1
    71    52   109    1
    72    52   110    1
    73    52   111    1
    74    53    54    1
    75    54    55    2
    76    54    56    1
    77    56   112    1
    78    56   113    1
    79    56   114    1
    80    57   115    1
    81    57   116    1
    82    57   117    1
    83    58   118    1
    84    58   119    1
    85    58   120    1
    86    59   121    1
    87    59   122    1
    88    59   123    1
    89    60    61    2
    90     1    47    1
    91     1    62    1
    92     2    63    1
    93     3    64    1
    94     4    65    1
    95     5     6    1
    96     7     8    2
    97     9    78    1
    98    15    79    1
    99    18    80    1
   100    18    81    1
   101    19    82    1
   102    19    83    1
   103    20    23    1
   104    21    84    1
   105    21    85    1
   106    22    86    1
   107    22    87    1
   108    27    45    1
   109    28    34    1
   110    32    58    1
   111    33    46    2
   112    36    51    1
   113    36    66    1
   114    37    52    1
   115    37    67    1
   116    38    53    1
   117    38    68    1
   118    42    48    1
   119    42    72    1
   120    43    44    2
   121    60    73    1
   122    61    74    1
   123    39    69    1
   124    39    57    1
   125    40    70    1
   126    40    50    1
   127    41    71    1
   128    41    49    1
