@<TRIPOS>MOLECULE
*****
 123 128 0 0 0
SMALL
GASTEIGER

@<TRIPOS>ATOM
     1 C         -0.158465   4.04009   -1.262266 C.3        1 UNL1     0.0009
     2 C         -1.575091   4.915436   -2.077115 C.2        1 UNL1     -0.0787
     3 C         -2.189535   5.479885   -3.260289 C.2        1 UNL1     -0.0649
     4 C         -3.74664   6.12587   -3.416769 C.2        1 UNL1     -0.0542
     5 C         -4.775982   6.466751   -4.328544 C.2        1 UNL1     0.0115
     6 C         -5.117068   6.628647   -5.835452 C.3        1 UNL1     -0.0348
     7 C         -6.265743   6.685492   -3.77199 C.2        1 UNL1     0.2441
     8 O         -6.756208   7.793046   -3.600836 O.2        1 UNL1     -0.2702
     9 N         -7.059439   5.525626   -3.741851 N.am        1 UNL1     -0.2772
     10 C         -6.888007   4.857247   -2.551389 C.2        1 UNL1     0.1049
     11 C         -5.837026   4.060916   -2.477092 C.2        1 UNL1     0.0801
     12 C         -6.854642   5.196183   -0.073215 C.ar        1 UNL1     0.0753
     13 C         -5.603121   4.501703   -0.073899 C.ar        1 UNL1     0.0305
     14 C         -5.119609   3.797257   -1.259236 C.2        1 UNL1     0.0924
     15 N         -5.011875   3.626992   -3.445266 N.pl3        1 UNL1     -0.3170
     16 C         -4.134401   2.644217   -2.866953 C.3        1 UNL1     0.1275
     17 N         -4.04518   3.027987   -1.410079 N.2        1 UNL1     -0.2557
     18 C         -4.865085   1.305525   -2.908258 C.3        1 UNL1     0.0016
     19 C         -5.270806   1.017041   -4.344836 C.3        1 UNL1     0.0026
     20 N         -4.072546   0.985675   -5.17201 N.3        1 UNL1     -0.3018
     21 C         -3.268733   2.209483   -5.148639 C.3        1 UNL1     0.0026
     22 C         -2.868289   2.477705   -3.696883 C.3        1 UNL1     0.0016
     23 C         -4.310493   0.428014   -6.48846 C.3        1 UNL1     0.0012
     24 C         -4.836598   1.509958   -7.444685 C.3        1 UNL1     -0.0339
     25 C         -5.83447   0.927148   -8.458904 C.3        1 UNL1     -0.0615
     26 C         -5.447808   2.652606   -6.652499 C.3        1 UNL1     -0.0615
     27 C         -7.365418   5.762057   1.092552 C.ar        1 UNL1     0.1347
     28 C         -6.736924   5.664419   2.321174 C.ar        1 UNL1     0.0342
     29 C         -5.482738   5.018663   2.2868 C.ar        1 UNL1     0.1435
     30 C         -4.941511   4.478524   1.11952 C.ar        1 UNL1     0.0774
     31 O         -4.798339   4.747615   3.419556 O.3        1 UNL1     -0.4436
     32 C         -3.873678   3.714882   3.046276 C.3        1 UNL1     0.3143
     33 C         -3.705727   3.856512   1.546961 C.2        1 UNL1     0.2504
     34 C         -7.339615   6.023381   3.65084 C.3        1 UNL1     -0.0327
     35 O         -2.61052   4.039105   3.640046 O.2        1 UNL1     -0.4528
     36 C         -0.884583   0.721682   4.291154 C.3        1 UNL1     0.0854
     37 C         -0.523736   -0.429878   3.275664 C.3        1 UNL1     0.0236
     38 C         1.022112   -0.856272   3.258811 C.3        1 UNL1     0.1131
     39 C         2.140697   0.252086   3.108545 C.3        1 UNL1     0.0200
     40 C         1.963479   1.486572   2.00081 C.3        1 UNL1     0.0661
     41 C         1.553605   1.302558   0.365037 C.3        1 UNL1     0.0091
     42 C         0.597105   2.39857   -0.752669 C.3        1 UNL1     0.0661
     43 C         -7.633769   5.216678   -1.336069 C.2        1 UNL1     0.2131
     44 O         -8.834996   5.410621   -1.382734 O.2        1 UNL1     -0.2851
     45 O         -8.567564   6.460124   0.997759 O.3        1 UNL1     -0.5056
     46 O         -2.756513   3.546287   0.862412 O.2        1 UNL1     -0.2836
     47 C         1.040279   5.009194   -1.07833 C.3        1 UNL1     -0.0566
     48 O         1.582024   2.320351   -1.858532 O.3        1 UNL1     -0.3909
     49 C         1.044857   -0.104615   0.144739 C.3        1 UNL1     -0.0577
     50 O         1.240185   2.563453   2.561965 O.3        1 UNL1     -0.3910
     51 O         0.207468   1.348841   4.924815 O.3        1 UNL1     -0.3753
     52 C         -1.375531   -0.340062   1.967487 C.3        1 UNL1     -0.0564
     53 O         1.277489   -2.161673   2.563802 O.3        1 UNL1     -0.4608
     54 C         1.962862   -3.223645   3.093341 C.2        1 UNL1     0.3042
     55 O         1.565809   -4.381511   3.21797 O.2        1 UNL1     -0.2512
     56 C         3.370055   -2.889182   3.499119 C.3        1 UNL1     0.0332
     57 C         2.63985   0.635977   4.578799 C.3        1 UNL1     -0.0567
     58 C         -4.576232   2.369939   3.344731 C.3        1 UNL1     0.0210
     59 C         1.45724   1.198854   4.252923 C.3        1 UNL1     0.0372
     60 C         -1.738558   1.806166   3.734573 C.2        1 UNL1     -0.0208
     61 C         -1.638441   3.131011   3.850796 C.2        1 UNL1     0.0882
     62 H         -0.718297   4.052308   -0.319319 H        1 UNL1     0.0365
     63 H         -2.211896   5.119653   -1.213839 H        1 UNL1     0.0576
     64 H         -1.728418   5.384177   -4.245844 H        1 UNL1     0.0615
     65 H         -4.08101   6.253174   -2.383583 H        1 UNL1     0.0622
     66 H         -1.490106   0.228151   5.06434 H        1 UNL1     0.0645
     67 H         -0.994528   -1.328446   3.710969 H        1 UNL1     0.0362
     68 H         1.120439   -1.232312   4.288592 H        1 UNL1     0.0741
     69 H         3.059721   -0.221836   2.790422 H        1 UNL1     0.0359
     70 H         3.007683   1.85032   1.951987 H        1 UNL1     0.0600
     71 H         2.565208   1.240055   -0.081853 H        1 UNL1     0.0348
     72 H         0.922815   3.030686   0.086173 H        1 UNL1     0.0602
     73 H         -2.597017   1.376653   3.280903 H        1 UNL1     0.0628
     74 H         -0.766724   3.65092   4.249597 H        1 UNL1     0.1022
     75 H         -4.44462   5.992548   -6.460133 H        1 UNL1     0.0279
     76 H         -6.106106   6.300293   -6.146992 H        1 UNL1     0.0279
     77 H         -4.883483   7.632706   -6.218863 H        1 UNL1     0.0279
     78 H         -6.774763   4.896829   -4.489949 H        1 UNL1     0.1553
     79 H         -5.242173   3.642735   -4.421815 H        1 UNL1     0.1484
     80 H         -4.203277   0.524684   -2.514475 H        1 UNL1     0.0317
     81 H         -5.749273   1.322246   -2.262052 H        1 UNL1     0.0317
     82 H         -5.992006   1.757626   -4.720757 H        1 UNL1     0.0428
     83 H         -5.791731   0.059102   -4.351151 H        1 UNL1     0.0428
     84 H         -2.334714   2.131652   -5.71376 H        1 UNL1     0.0428
     85 H         -3.794531   3.052911   -5.61713 H        1 UNL1     0.0428
     86 H         -2.175925   3.298202   -3.734366 H        1 UNL1     0.0317
     87 H         -2.258932   1.648586   -3.316958 H        1 UNL1     0.0317
     88 H         -3.355364   0.051935   -6.877801 H        1 UNL1     0.0429
     89 H         -4.997467   -0.426744   -6.441225 H        1 UNL1     0.0429
     90 H         -3.993256   1.944203   -7.994611 H        1 UNL1     0.0308
     91 H         -6.565475   0.276963   -7.969012 H        1 UNL1     0.0233
     92 H         -6.361387   1.726394   -8.985375 H        1 UNL1     0.0233
     93 H         -5.341026   0.325402   -9.231724 H        1 UNL1     0.0233
     94 H         -6.148068   3.214873   -7.279657 H        1 UNL1     0.0233
     95 H         -6.003168   2.258826   -5.796651 H        1 UNL1     0.0233
     96 H         -4.680205   3.341309   -6.288575 H        1 UNL1     0.0233
     97 H         -7.463315   7.096087   3.765859 H        1 UNL1     0.0280
     98 H         -8.339533   5.589718   3.782576 H        1 UNL1     0.0280
     99 H         -6.6863   5.661948   4.461791 H        1 UNL1     0.0280
     100 H         -9.337681   5.929859   1.104347 H        1 UNL1     0.2922
     101 H         1.156338   5.254258   -0.022806 H        1 UNL1     0.0236
     102 H         0.969666   5.901168   -1.699923 H        1 UNL1     0.0236
     103 H         1.997722   4.542533   -1.364204 H        1 UNL1     0.0236
     104 H         1.400542   3.062227   -2.468167 H        1 UNL1     0.2098
     105 H         1.454584   -0.598035   -0.733027 H        1 UNL1     0.0234
     106 H         1.119721   -0.757271   1.01443 H        1 UNL1     0.0234
     107 H         -0.0   0.0   0.0 H        1 UNL1     0.0234
     108 H         0.907957   3.106853   1.821621 H        1 UNL1     0.2098
     109 H         -2.452584   -0.432617   2.165229 H        1 UNL1     0.0234
     110 H         -1.185718   0.572433   1.392102 H        1 UNL1     0.0234
     111 H         -1.130845   -1.151113   1.268722 H        1 UNL1     0.0234
     112 H         3.591377   -3.332473   4.474749 H        1 UNL1     0.0342
     113 H         4.09747   -3.204532   2.752617 H        1 UNL1     0.0342
     114 H         3.447964   -1.797852   3.599589 H        1 UNL1     0.0342
     115 H         2.933013   -0.252126   5.155442 H        1 UNL1     0.0234
     116 H         3.482197   1.330424   4.594444 H        1 UNL1     0.0234
     117 H         1.843245   1.052384   5.219085 H        1 UNL1     0.0234
     118 H         -4.34178   1.602476   2.586418 H        1 UNL1     0.0309
     119 H         -4.342928   1.974583   4.338444 H        1 UNL1     0.0309
     120 H         -5.668029   2.446437   3.297474 H        1 UNL1     0.0309
     121 H         2.186719   1.820965   4.7708 H        1 UNL1     0.0524
     122 H         1.826173   0.160083   4.282604 H        1 UNL1     0.0524
     123 H         1.366634   1.511353   3.216473 H        1 UNL1     0.0524
@<TRIPOS>BOND
     1     1     2    1
     2     1    42    1
     3     2     3    2
     4     3     4    1
     5     4     5    2
     6     5     7    1
     7     6    75    1
     8     6    76    1
     9     6    77    1
    10     7     9   am
    11     9    10    1
    12    10    11    2
    13    10    43    1
    14    11    14    1
    15    11    15    1
    16    12    13   ar
    17    12    27   ar
    18    12    43    1
    19    13    14    1
    20    13    30   ar
    21    14    17    2
    22    15    16    1
    23    16    17    1
    24    16    18    1
    25    16    22    1
    26    18    19    1
    27    19    20    1
    28    20    21    1
    29    21    22    1
    30    23    24    1
    31    23    88    1
    32    23    89    1
    33    24    25    1
    34    24    26    1
    35    24    90    1
    36    25    91    1
    37    25    92    1
    38    25    93    1
    39    26    94    1
    40    26    95    1
    41    26    96    1
    42    27    28   ar
    43    28    29   ar
    44    29    30   ar
    45    29    31    1
    46    30    33    1
    47    31    32    1
    48    32    33    1
    49    32    35    1
    50    34    97    1
    51    34    98    1
    52    34    99    1
    53    35    61    1
    54    36    37    1
    55    36    60    1
    56    37    38    1
    57    38    39    1
    58    39    40    1
    59    40    41    1
    60    41    42    1
    61    45   100    1
    62    47   101    1
    63    47   102    1
    64    47   103    1
    65    48   104    1
    66    49   105    1
    67    49   106    1
    68    49   107    1
    69    50   108    1
    70    51    59    1
    71    52   109    1
    72    52   110    1
    73    52   111    1
    74    53    54    1
    75    54    55    2
    76    54    56    1
    77    56   112    1
    78    56   113    1
    79    56   114    1
    80    57   115    1
    81    57   116    1
    82    57   117    1
    83    58   118    1
    84    58   119    1
    85    58   120    1
    86    59   121    1
    87    59   122    1
    88    59   123    1
    89    60    61    2
    90     1    47    1
    91     1    62    1
    92     2    63    1
    93     3    64    1
    94     4    65    1
    95     5     6    1
    96     7     8    2
    97     9    78    1
    98    15    79    1
    99    18    80    1
   100    18    81    1
   101    19    82    1
   102    19    83    1
   103    20    23    1
   104    21    84    1
   105    21    85    1
   106    22    86    1
   107    22    87    1
   108    27    45    1
   109    28    34    1
   110    32    58    1
   111    33    46    2
   112    36    51    1
   113    36    66    1
   114    37    52    1
   115    37    67    1
   116    38    53    1
   117    38    68    1
   118    42    48    1
   119    42    72    1
   120    43    44    2
   121    60    73    1
   122    61    74    1
   123    39    69    1
   124    39    57    1
   125    40    70    1
   126    40    50    1
   127    41    71    1
   128    41    49    1
