@<TRIPOS>MOLECULE
*****
 123 128 0 0 0
SMALL
GASTEIGER

@<TRIPOS>ATOM
     1 C         -0.142172   4.037391   -1.284627 C.3        1 UNL1     0.0009
     2 C         -1.551362   4.91207   -2.112974 C.2        1 UNL1     -0.0787
     3 C         -2.155961   5.473734   -3.302528 C.2        1 UNL1     -0.0649
     4 C         -3.710984   6.121211   -3.472923 C.2        1 UNL1     -0.0542
     5 C         -4.732843   6.460649   -4.39361 C.2        1 UNL1     0.0115
     6 C         -5.062119   6.618442   -5.903577 C.3        1 UNL1     -0.0348
     7 C         -6.226559   6.682944   -3.849196 C.2        1 UNL1     0.2441
     8 O         -6.716901   7.791626   -3.685142 O.2        1 UNL1     -0.2702
     9 N         -7.021954   5.524177   -3.821689 N.am        1 UNL1     -0.2772
     10 C         -6.860543   4.859164   -2.627944 C.2        1 UNL1     0.1049
     11 C         -5.81119   4.061735   -2.543175 C.2        1 UNL1     0.0801
     12 C         -6.845805   5.205509   -0.150615 C.ar        1 UNL1     0.0753
     13 C         -5.59521   4.509451   -0.139585 C.ar        1 UNL1     0.0305
     14 C         -5.103501   3.800833   -1.319049 C.2        1 UNL1     0.0924
     15 N         -4.979175   3.623859   -3.503665 N.pl3        1 UNL1     -0.3170
     16 C         -4.107439   2.64172   -2.915673 C.3        1 UNL1     0.1275
     17 N         -4.028934   3.029757   -1.459312 N.2        1 UNL1     -0.2557
     18 C         -4.839505   1.303834   -2.958587 C.3        1 UNL1     0.0016
     19 C         -5.234535   1.011543   -4.397374 C.3        1 UNL1     0.0026
     20 N         -4.029989   0.976177   -5.215204 N.3        1 UNL1     -0.3018
     21 C         -3.224806   2.199034   -5.189316 C.3        1 UNL1     0.0026
     22 C         -2.835196   2.471114   -3.735331 C.3        1 UNL1     0.0016
     23 C         -4.25852   0.41486   -6.531768 C.3        1 UNL1     0.0012
     24 C         -5.734404   0.021169   -6.700676 C.3        1 UNL1     -0.0339
     25 C         -5.88552   -1.229111   -7.582731 C.3        1 UNL1     -0.0615
     26 C         -6.380542   -0.173249   -5.339982 C.3        1 UNL1     -0.0615
     27 C         -7.364805   5.775532   1.009485 C.ar        1 UNL1     0.1347
     28 C         -6.745906   5.680796   2.243195 C.ar        1 UNL1     0.0342
     29 C         -5.492325   5.033356   2.22041 C.ar        1 UNL1     0.1435
     30 C         -4.94283   4.489026   1.058954 C.ar        1 UNL1     0.0774
     31 O         -4.817008   4.764852   3.359207 O.3        1 UNL1     -0.4436
     32 C         -3.890832   3.729834   2.996151 C.3        1 UNL1     0.3143
     33 C         -3.711171   3.866742   1.497755 C.2        1 UNL1     0.2504
     34 C         -7.358345   6.044515   3.567101 C.3        1 UNL1     -0.0327
     35 O         -2.631862   4.054245   3.59865 O.2        1 UNL1     -0.4528
     36 C         -0.915252   0.736619   4.272963 C.3        1 UNL1     0.0854
     37 C         -0.548086   -0.418445   3.263736 C.3        1 UNL1     0.0236
     38 C         0.997297   -0.84684   3.260058 C.3        1 UNL1     0.1131
     39 C         2.118429   0.259648   3.115083 C.3        1 UNL1     0.0200
     40 C         1.951324   1.49102   2.002322 C.3        1 UNL1     0.0661
     41 C         1.553808   1.302606   0.364002 C.3        1 UNL1     0.0091
     42 C         0.607343   2.396458   -0.764313 C.3        1 UNL1     0.0661
     43 C         -7.615169   5.223191   -1.419483 C.2        1 UNL1     0.2131
     44 O         -8.815751   5.418509   -1.475972 O.2        1 UNL1     -0.2851
     45 O         -8.565288   6.474828   0.903352 O.3        1 UNL1     -0.5056
     46 O         -2.75712   3.553261   0.821464 O.2        1 UNL1     -0.2836
     47 C         1.056366   5.005529   -1.094377 C.3        1 UNL1     -0.0566
     48 O         1.600639   2.31367   -1.862323 O.3        1 UNL1     -0.3909
     49 C         1.044961   -0.104581   0.144014 C.3        1 UNL1     -0.0577
     50 O         1.22512   2.570497   2.554664 O.3        1 UNL1     -0.3910
     51 O         0.172698   1.364301   4.913127 O.3        1 UNL1     -0.3753
     52 C         -1.389677   -0.331487   1.948779 C.3        1 UNL1     -0.0564
     53 O         1.256333   -2.154646   2.570952 O.3        1 UNL1     -0.4608
     54 C         0.706565   -3.360224   2.92062 C.2        1 UNL1     0.3042
     55 O         1.247206   -4.276445   3.538748 O.2        1 UNL1     -0.2512
     56 C         -0.736487   -3.499884   2.527161 C.3        1 UNL1     0.0332
     57 C         2.606751   0.647329   4.587978 C.3        1 UNL1     -0.0567
     58 C         -4.59739   2.386682   3.293221 C.3        1 UNL1     0.0210
     59 C         1.40078   0.640132   4.856037 C.3        1 UNL1     0.0372
     60 C         -1.763526   1.820502   3.706578 C.2        1 UNL1     -0.0208
     61 C         -1.662602   3.145562   3.819596 C.2        1 UNL1     0.0882
     62 H         -0.709225   4.053152   -0.346057 H        1 UNL1     0.0365
     63 H         -2.194525   5.119687   -1.255241 H        1 UNL1     0.0576
     64 H         -1.6874   5.374481   -4.284215 H        1 UNL1     0.0615
     65 H         -4.053128   6.252044   -2.442727 H        1 UNL1     0.0622
     66 H         -1.527339   0.24618   5.042941 H        1 UNL1     0.0645
     67 H         -1.023367   -1.315105   3.698096 H        1 UNL1     0.0362
     68 H         1.087216   -1.219904   4.291688 H        1 UNL1     0.0741
     69 H         3.039262   -0.216388   2.805464 H        1 UNL1     0.0359
     70 H         2.99634   1.853301   1.960446 H        1 UNL1     0.0600
     71 H         2.568737   1.237481   -0.0749 H        1 UNL1     0.0348
     72 H         0.927405   3.030682   0.075113 H        1 UNL1     0.0602
     73 H         -2.619021   1.390711   3.247605 H        1 UNL1     0.0628
     74 H         -0.793311   3.665567   4.223533 H        1 UNL1     0.1022
     75 H         -6.166254   6.593195   -6.068753 H        1 UNL1     0.0279
     76 H         -4.777521   7.560768   -6.366282 H        1 UNL1     0.0279
     77 H         -4.733505   5.756684   -6.502815 H        1 UNL1     0.0279
     78 H         -6.73234   4.892774   -4.565686 H        1 UNL1     0.1553
     79 H         -5.201934   3.636956   -4.482001 H        1 UNL1     0.1484
     80 H         -4.18175   0.523346   -2.557384 H        1 UNL1     0.0317
     81 H         -5.728615   1.323614   -2.319258 H        1 UNL1     0.0317
     82 H         -5.951869   1.751905   -4.781052 H        1 UNL1     0.0428
     83 H         -5.756627   0.054248   -4.404826 H        1 UNL1     0.0428
     84 H         -2.286568   2.118324   -5.746996 H        1 UNL1     0.0428
     85 H         -3.745901   3.041712   -5.664365 H        1 UNL1     0.0428
     86 H         -2.14151   3.29062   -3.769945 H        1 UNL1     0.0317
     87 H         -2.229846   1.642373   -3.348245 H        1 UNL1     0.0317
     88 H         -4.014049   1.182587   -7.277505 H        1 UNL1     0.0429
     89 H         -3.596504   -0.439898   -6.721237 H        1 UNL1     0.0429
     90 H         -6.275262   0.849507   -7.173479 H        1 UNL1     0.0308
     91 H         -5.177195   -2.01008   -7.290385 H        1 UNL1     0.0233
     92 H         -6.901827   -1.625173   -7.520575 H        1 UNL1     0.0233
     93 H         -5.704583   -1.016337   -8.643308 H        1 UNL1     0.0233
     94 H         -7.269167   -0.80721   -5.430947 H        1 UNL1     0.0233
     95 H         -5.680729   -0.669063   -4.66146 H        1 UNL1     0.0233
     96 H         -6.681114   0.782123   -4.900791 H        1 UNL1     0.0233
     97 H         -6.932103   5.470722   4.384604 H        1 UNL1     0.0280
     98 H         -7.194552   7.099485   3.822964 H        1 UNL1     0.0280
     99 H         -8.443084   5.850696   3.537618 H        1 UNL1     0.0280
     100 H         -8.502749   7.392499   1.102323 H        1 UNL1     0.2922
     101 H         1.118314   5.313311   -0.050783 H        1 UNL1     0.0236
     102 H         1.029948   5.858633   -1.771503 H        1 UNL1     0.0236
     103 H         2.022198   4.514124   -1.29903 H        1 UNL1     0.0236
     104 H         1.989005   3.203123   -1.976414 H        1 UNL1     0.2098
     105 H         1.4541   -0.597959   -0.734049 H        1 UNL1     0.0234
     106 H         1.120449   -0.757258   1.013635 H        1 UNL1     0.0234
     107 H         -0.0   0.0   0.0 H        1 UNL1     0.0234
     108 H         1.187766   3.272224   1.876466 H        1 UNL1     0.2098
     109 H         -2.329186   -0.897386   2.018014 H        1 UNL1     0.0234
     110 H         -1.603775   0.698003   1.642095 H        1 UNL1     0.0234
     111 H         -0.84869   -0.757102   1.093132 H        1 UNL1     0.0234
     112 H         -1.118538   -4.472235   2.852608 H        1 UNL1     0.0342
     113 H         -1.348194   -2.688678   2.919084 H        1 UNL1     0.0342
     114 H         -0.798234   -3.463589   1.430788 H        1 UNL1     0.0342
     115 H         2.759052   -0.241937   5.215035 H        1 UNL1     0.0234
     116 H         3.531386   1.227482   4.610803 H        1 UNL1     0.0234
     117 H         1.847435   1.193554   5.173655 H        1 UNL1     0.0234
     118 H         -5.575468   2.311771   2.786509 H        1 UNL1     0.0309
     119 H         -3.990246   1.514554   3.030595 H        1 UNL1     0.0309
     120 H         -4.852146   2.270975   4.352379 H        1 UNL1     0.0309
     121 H         2.001447   0.941561   5.713764 H        1 UNL1     0.0524
     122 H         1.247389   -0.449725   4.92473 H        1 UNL1     0.0524
     123 H         1.926902   0.864624   3.932514 H        1 UNL1     0.0524
@<TRIPOS>BOND
     1     1     2    1
     2     1    42    1
     3     2     3    2
     4     3     4    1
     5     4     5    2
     6     5     7    1
     7     6    75    1
     8     6    76    1
     9     6    77    1
    10     7     9   am
    11     9    10    1
    12    10    11    2
    13    10    43    1
    14    11    14    1
    15    11    15    1
    16    12    13   ar
    17    12    27   ar
    18    12    43    1
    19    13    14    1
    20    13    30   ar
    21    14    17    2
    22    15    16    1
    23    16    17    1
    24    16    18    1
    25    16    22    1
    26    18    19    1
    27    19    20    1
    28    20    21    1
    29    21    22    1
    30    23    24    1
    31    23    88    1
    32    23    89    1
    33    24    25    1
    34    24    26    1
    35    24    90    1
    36    25    91    1
    37    25    92    1
    38    25    93    1
    39    26    94    1
    40    26    95    1
    41    26    96    1
    42    27    28   ar
    43    28    29   ar
    44    29    30   ar
    45    29    31    1
    46    30    33    1
    47    31    32    1
    48    32    33    1
    49    32    35    1
    50    34    97    1
    51    34    98    1
    52    34    99    1
    53    35    61    1
    54    36    37    1
    55    36    60    1
    56    37    38    1
    57    38    39    1
    58    39    40    1
    59    40    41    1
    60    41    42    1
    61    45   100    1
    62    47   101    1
    63    47   102    1
    64    47   103    1
    65    48   104    1
    66    49   105    1
    67    49   106    1
    68    49   107    1
    69    50   108    1
    70    51    59    1
    71    52   109    1
    72    52   110    1
    73    52   111    1
    74    53    54    1
    75    54    55    2
    76    54    56    1
    77    56   112    1
    78    56   113    1
    79    56   114    1
    80    57   115    1
    81    57   116    1
    82    57   117    1
    83    58   118    1
    84    58   119    1
    85    58   120    1
    86    59   121    1
    87    59   122    1
    88    59   123    1
    89    60    61    2
    90     1    47    1
    91     1    62    1
    92     2    63    1
    93     3    64    1
    94     4    65    1
    95     5     6    1
    96     7     8    2
    97     9    78    1
    98    15    79    1
    99    18    80    1
   100    18    81    1
   101    19    82    1
   102    19    83    1
   103    20    23    1
   104    21    84    1
   105    21    85    1
   106    22    86    1
   107    22    87    1
   108    27    45    1
   109    28    34    1
   110    32    58    1
   111    33    46    2
   112    36    51    1
   113    36    66    1
   114    37    52    1
   115    37    67    1
   116    38    53    1
   117    38    68    1
   118    42    48    1
   119    42    72    1
   120    43    44    2
   121    60    73    1
   122    61    74    1
   123    39    69    1
   124    39    57    1
   125    40    70    1
   126    40    50    1
   127    41    71    1
   128    41    49    1
