@<TRIPOS>MOLECULE
*****
 123 128 0 0 0
SMALL
GASTEIGER

@<TRIPOS>ATOM
     1 C         -2.236604   -2.350768   -4.361793 C.3        1 UNL1     0.0009
     2 C         -2.137984   -2.49014   -6.207839 C.2        1 UNL1     -0.0787
     3 C         -2.678873   -2.203368   -7.519802 C.2        1 UNL1     -0.0649
     4 C         -1.988194   -2.54454   -9.027423 C.2        1 UNL1     -0.0542
     5 C         -1.990756   -2.218707   -10.406156 C.2        1 UNL1     0.0115
     6 C         -2.748869   -1.430944   -11.509793 C.3        1 UNL1     -0.0348
     7 C         -0.733609   -2.646898   -11.307945 C.2        1 UNL1     0.2441
     8 O         -0.752977   -3.60977   -12.062285 O.2        1 UNL1     -0.2702
     9 N         0.298094   -1.694103   -11.370552 N.am        1 UNL1     -0.2772
     10 C         1.185511   -1.878496   -10.335268 C.2        1 UNL1     0.1049
     11 C         0.848347   -1.341038   -9.176959 C.2        1 UNL1     0.0801
     12 C         2.539839   -3.630541   -9.171882 C.ar        1 UNL1     0.0753
     13 C         1.979415   -3.140529   -7.949417 C.ar        1 UNL1     0.0305
     14 C         1.217182   -1.894802   -7.902328 C.2        1 UNL1     0.0924
     15 N         -0.123101   -0.459637   -8.88379 N.pl3        1 UNL1     -0.3170
     16 C         0.042021   -0.064474   -7.510169 C.3        1 UNL1     0.1275
     17 N         0.715295   -1.245899   -6.855446 N.2        1 UNL1     -0.2557
     18 C         1.060978   1.07079   -7.48562 C.3        1 UNL1     0.0016
     19 C         0.574785   2.180612   -8.404043 C.3        1 UNL1     0.0026
     20 N         -0.72804   2.635752   -7.938723 N.3        1 UNL1     -0.3018
     21 C         -1.760135   1.59929   -7.868757 C.3        1 UNL1     0.0026
     22 C         -1.252756   0.496915   -6.937506 C.3        1 UNL1     0.0016
     23 C         -1.143394   3.880496   -8.55414 C.3        1 UNL1     0.0012
     24 C         -0.998818   3.800487   -10.082031 C.3        1 UNL1     -0.0339
     25 C         -1.407246   2.41687   -10.613866 C.3        1 UNL1     -0.0615
     26 C         -1.799578   4.91087   -10.739765 C.3        1 UNL1     -0.0615
     27 C         3.365507   -4.752194   -9.188802 C.ar        1 UNL1     0.1347
     28 C         3.732736   -5.440588   -8.046302 C.ar        1 UNL1     0.0342
     29 C         3.129861   -4.969623   -6.860596 C.ar        1 UNL1     0.1435
     30 C         2.272108   -3.869289   -6.833283 C.ar        1 UNL1     0.0774
     31 O         3.471975   -5.464934   -5.651203 O.3        1 UNL1     -0.4436
     32 C         3.043533   -4.464392   -4.715133 C.3        1 UNL1     0.3143
     33 C         1.954461   -3.691955   -5.431706 C.2        1 UNL1     0.2504
     34 C         4.80588   -6.489506   -7.955569 C.3        1 UNL1     -0.0327
     35 O         2.420022   -5.145379   -3.619349 O.2        1 UNL1     -0.4528
     36 C         3.016524   -2.969453   -0.566871 C.3        1 UNL1     0.0854
     37 C         2.624965   -1.460591   -0.326997 C.3        1 UNL1     0.0236
     38 C         1.745532   -1.191196   0.986688 C.3        1 UNL1     0.1131
     39 C         0.441996   -2.04831   1.248263 C.3        1 UNL1     0.0200
     40 C         -0.623704   -2.366233   0.005022 C.3        1 UNL1     0.0661
     41 C         -1.271931   -1.220963   -1.065382 C.3        1 UNL1     0.0091
     42 C         -1.760252   -1.3807   -2.82647 C.3        1 UNL1     0.0661
     43 C         2.285168   -2.851958   -10.409303 C.2        1 UNL1     0.2131
     44 O         2.988484   -2.915626   -11.401285 O.2        1 UNL1     -0.2851
     45 O         3.832678   -5.190721   -10.426091 O.3        1 UNL1     -0.5056
     46 O         1.021852   -3.08544   -4.953968 O.2        1 UNL1     -0.2836
     47 C         -3.332552   -3.300084   -3.807107 C.3        1 UNL1     -0.0566
     48 O         -3.070176   -0.710408   -2.642283 O.3        1 UNL1     -0.3909
     49 C         -0.484282   0.064169   -0.94073 C.3        1 UNL1     -0.0577
     50 O         -0.234524   -3.52493   -0.704685 O.3        1 UNL1     -0.3910
     51 O         2.408449   -3.907709   0.291821 O.3        1 UNL1     -0.3753
     52 C         2.363153   -0.706604   -1.671582 C.3        1 UNL1     -0.0564
     53 O         1.684586   0.255183   1.382414 O.3        1 UNL1     -0.4608
     54 C         2.358385   1.277145   0.766363 C.2        1 UNL1     0.3042
     55 O         1.924213   2.392133   0.47977 O.2        1 UNL1     -0.2512
     56 C         3.799743   0.962528   0.483142 C.3        1 UNL1     0.0332
     57 C         0.84643   -3.259576   2.211301 C.3        1 UNL1     -0.0567
     58 C         4.253935   -3.528375   -4.490792 C.3        1 UNL1     0.0210
     59 C         3.070157   -4.092689   1.542337 C.3        1 UNL1     0.0372
     60 C         2.806992   -3.460265   -1.956245 C.2        1 UNL1     -0.0208
     61 C         2.26562   -4.59568   -2.399521 C.2        1 UNL1     0.0882
     62 H         -1.286432   -2.893558   -4.289235 H        1 UNL1     0.0365
     63 H         -1.263511   -3.135023   -6.316893 H        1 UNL1     0.0576
     64 H         -3.554081   -1.563065   -7.65069 H        1 UNL1     0.0615
     65 H         -1.182475   -3.245294   -8.792379 H        1 UNL1     0.0622
     66 H         4.101686   -3.003577   -0.395686 H        1 UNL1     0.0645
     67 H         3.578933   -0.975936   -0.05568 H        1 UNL1     0.0362
     68 H         2.463807   -1.509882   1.75743 H        1 UNL1     0.0741
     69 H         -0.178699   -1.5278   1.965351 H        1 UNL1     0.0359
     70 H         -1.508698   -2.683762   0.588992 H        1 UNL1     0.0600
     71 H         -2.203158   -0.957926   -0.526322 H        1 UNL1     0.0348
     72 H         -1.727037   -2.404693   -2.426907 H        1 UNL1     0.0602
     73 H         3.286082   -2.800069   -2.635849 H        1 UNL1     0.0628
     74 H         1.706825   -5.296213   -1.778039 H        1 UNL1     0.1022
     75 H         -3.735527   -1.073069   -11.128394 H        1 UNL1     0.0279
     76 H         -2.283503   -0.510585   -11.855401 H        1 UNL1     0.0279
     77 H         -3.059707   -2.068793   -12.350168 H        1 UNL1     0.0279
     78 H         -0.093381   -0.759322   -11.275637 H        1 UNL1     0.1553
     79 H         -0.571468   0.122759   -9.566956 H        1 UNL1     0.1484
     80 H         1.175871   1.425845   -6.454357 H        1 UNL1     0.0317
     81 H         2.046895   0.7187   -7.807572 H        1 UNL1     0.0317
     82 H         0.527506   1.850281   -9.452165 H        1 UNL1     0.0428
     83 H         1.316841   2.979009   -8.372986 H        1 UNL1     0.0428
     84 H         -2.704977   1.949274   -7.441444 H        1 UNL1     0.0428
     85 H         -2.038371   1.23149   -8.866066 H        1 UNL1     0.0428
     86 H         -2.080922   -0.174402   -6.80536 H        1 UNL1     0.0317
     87 H         -1.091049   0.901677   -5.93097 H        1 UNL1     0.0317
     88 H         -2.201325   4.045195   -8.311343 H        1 UNL1     0.0429
     89 H         -0.583662   4.732625   -8.147507 H        1 UNL1     0.0429
     90 H         0.047379   3.984205   -10.353936 H        1 UNL1     0.0308
     91 H         -1.23438   2.338034   -11.691365 H        1 UNL1     0.0233
     92 H         -0.851625   1.627135   -10.102775 H        1 UNL1     0.0233
     93 H         -2.469385   2.201594   -10.445488 H        1 UNL1     0.0233
     94 H         -2.84368   4.602689   -10.861057 H        1 UNL1     0.0233
     95 H         -1.783069   5.805924   -10.111619 H        1 UNL1     0.0233
     96 H         -1.397162   5.16343   -11.724774 H        1 UNL1     0.0233
     97 H         4.946287   -7.011317   -8.897498 H        1 UNL1     0.0280
     98 H         5.783743   -6.060177   -7.701175 H        1 UNL1     0.0280
     99 H         4.533029   -7.231112   -7.18702 H        1 UNL1     0.0280
     100 H         3.172185   -5.255969   -11.093259 H        1 UNL1     0.2922
     101 H         -3.656355   -2.954089   -2.825732 H        1 UNL1     0.0236
     102 H         -3.026332   -4.345538   -3.791653 H        1 UNL1     0.0236
     103 H         -4.245899   -3.283894   -4.424948 H        1 UNL1     0.0236
     104 H         -3.475023   -1.07229   -1.829811 H        1 UNL1     0.2098
     105 H         0.281519   0.197082   -1.700792 H        1 UNL1     0.0234
     106 H         -1.092489   0.964607   -0.855747 H        1 UNL1     0.0234
     107 H         0.0   0.0   0.0 H        1 UNL1     0.0234
     108 H         0.643772   -3.346235   -1.092543 H        1 UNL1     0.2098
     109 H         1.731777   0.182287   -1.533933 H        1 UNL1     0.0234
     110 H         3.284053   -0.424704   -2.193329 H        1 UNL1     0.0234
     111 H         1.831215   -1.340064   -2.393881 H        1 UNL1     0.0234
     112 H         4.283767   1.824806   0.014588 H        1 UNL1     0.0342
     113 H         4.335199   0.653227   1.379504 H        1 UNL1     0.0342
     114 H         3.834919   0.127724   -0.230321 H        1 UNL1     0.0342
     115 H         -0.015641   -3.634536   2.780006 H        1 UNL1     0.0234
     116 H         1.292078   -4.110124   1.691672 H        1 UNL1     0.0234
     117 H         1.527899   -2.963996   3.027496 H        1 UNL1     0.0234
     118 H         3.975219   -2.616299   -3.934518 H        1 UNL1     0.0309
     119 H         5.087651   -4.019363   -3.978883 H        1 UNL1     0.0309
     120 H         4.662307   -3.137099   -5.429004 H        1 UNL1     0.0309
     121 H         2.336629   -4.47892   2.249527 H        1 UNL1     0.0524
     122 H         3.88862   -4.828881   1.477706 H        1 UNL1     0.0524
     123 H         3.472577   -3.148385   1.897923 H        1 UNL1     0.0524
@<TRIPOS>BOND
     1     1     2    1
     2     1    42    1
     3     2     3    2
     4     3     4    1
     5     4     5    2
     6     5     7    1
     7     6    75    1
     8     6    76    1
     9     6    77    1
    10     7     9   am
    11     9    10    1
    12    10    11    2
    13    10    43    1
    14    11    14    1
    15    11    15    1
    16    12    13   ar
    17    12    27   ar
    18    12    43    1
    19    13    14    1
    20    13    30   ar
    21    14    17    2
    22    15    16    1
    23    16    17    1
    24    16    18    1
    25    16    22    1
    26    18    19    1
    27    19    20    1
    28    20    21    1
    29    21    22    1
    30    23    24    1
    31    23    88    1
    32    23    89    1
    33    24    25    1
    34    24    26    1
    35    24    90    1
    36    25    91    1
    37    25    92    1
    38    25    93    1
    39    26    94    1
    40    26    95    1
    41    26    96    1
    42    27    28   ar
    43    28    29   ar
    44    29    30   ar
    45    29    31    1
    46    30    33    1
    47    31    32    1
    48    32    33    1
    49    32    35    1
    50    34    97    1
    51    34    98    1
    52    34    99    1
    53    35    61    1
    54    36    37    1
    55    36    60    1
    56    37    38    1
    57    38    39    1
    58    39    40    1
    59    40    41    1
    60    41    42    1
    61    45   100    1
    62    47   101    1
    63    47   102    1
    64    47   103    1
    65    48   104    1
    66    49   105    1
    67    49   106    1
    68    49   107    1
    69    50   108    1
    70    51    59    1
    71    52   109    1
    72    52   110    1
    73    52   111    1
    74    53    54    1
    75    54    55    2
    76    54    56    1
    77    56   112    1
    78    56   113    1
    79    56   114    1
    80    57   115    1
    81    57   116    1
    82    57   117    1
    83    58   118    1
    84    58   119    1
    85    58   120    1
    86    59   121    1
    87    59   122    1
    88    59   123    1
    89    60    61    2
    90     1    47    1
    91     1    62    1
    92     2    63    1
    93     3    64    1
    94     4    65    1
    95     5     6    1
    96     7     8    2
    97     9    78    1
    98    15    79    1
    99    18    80    1
   100    18    81    1
   101    19    82    1
   102    19    83    1
   103    20    23    1
   104    21    84    1
   105    21    85    1
   106    22    86    1
   107    22    87    1
   108    27    45    1
   109    28    34    1
   110    32    58    1
   111    33    46    2
   112    36    51    1
   113    36    66    1
   114    37    52    1
   115    37    67    1
   116    38    53    1
   117    38    68    1
   118    42    48    1
   119    42    72    1
   120    43    44    2
   121    60    73    1
   122    61    74    1
   123    39    69    1
   124    39    57    1
   125    40    70    1
   126    40    50    1
   127    41    71    1
   128    41    49    1
