@<TRIPOS>MOLECULE
*****
 123 128 0 0 0
SMALL
GASTEIGER

@<TRIPOS>ATOM
     1 C         -4.271171   1.650215   -1.681255 C.3        1 UNL1     0.0009
     2 C         -6.08844   1.345211   -1.477431 C.2        1 UNL1     -0.0787
     3 C         -7.275197   0.575375   -1.785663 C.2        1 UNL1     -0.0649
     4 C         -8.822034   0.734946   -1.116193 C.2        1 UNL1     -0.0542
     5 C         -10.06494   0.090906   -0.898306 C.2        1 UNL1     0.0115
     6 C         -10.917092   -1.154062   -1.268732 C.3        1 UNL1     -0.0348
     7 C         -11.052973   0.669458   0.226886 C.2        1 UNL1     0.2441
     8 O         -12.035602   1.349042   -0.036041 O.2        1 UNL1     -0.2702
     9 N         -10.864704   0.12848   1.51065 N.am        1 UNL1     -0.2772
     10 C         -9.918932   0.850255   2.201938 C.2        1 UNL1     0.1049
     11 C         -8.658229   0.541253   1.958281 C.2        1 UNL1     0.0801
     12 C         -9.267296   3.184564   2.821377 C.ar        1 UNL1     0.0753
     13 C         -7.956437   2.860983   2.346454 C.ar        1 UNL1     0.0305
     14 C         -7.577602   1.487604   2.021852 C.2        1 UNL1     0.0924
     15 N         -8.137936   -0.508082   1.298949 N.pl3        1 UNL1     -0.3170
     16 C         -6.709366   -0.467305   1.465626 C.3        1 UNL1     0.1275
     17 N         -6.394124   0.994705   1.667794 N.2        1 UNL1     -0.2557
     18 C         -6.388615   -1.156534   2.78842 C.3        1 UNL1     0.0016
     19 C         -6.977844   -2.557857   2.762071 C.3        1 UNL1     0.0026
     20 N         -6.403314   -3.285834   1.639132 N.3        1 UNL1     -0.3018
     21 C         -6.606677   -2.667038   0.327604 C.3        1 UNL1     0.0026
     22 C         -6.00319   -1.262251   0.375248 C.3        1 UNL1     0.0016
     23 C         -6.664885   -4.710207   1.697309 C.3        1 UNL1     0.0012
     24 C         -8.159833   -4.973962   1.936722 C.3        1 UNL1     -0.0339
     25 C         -8.858823   -5.453268   0.653859 C.3        1 UNL1     -0.0615
     26 C         -8.338267   -5.964627   3.074054 C.3        1 UNL1     -0.0615
     27 C         -9.584385   4.473673   3.243007 C.ar        1 UNL1     0.1347
     28 C         -8.666858   5.508704   3.273098 C.ar        1 UNL1     0.0342
     29 C         -7.396325   5.179153   2.755114 C.ar        1 UNL1     0.1435
     30 C         -7.074744   3.901433   2.29551 C.ar        1 UNL1     0.0774
     31 O         -6.362989   6.047088   2.817667 O.3        1 UNL1     -0.4436
     32 C         -5.193376   5.23079   2.654772 C.3        1 UNL1     0.3143
     33 C         -5.675084   3.987628   1.934551 C.2        1 UNL1     0.2504
     34 C         -8.861838   6.840624   3.94248 C.3        1 UNL1     -0.0327
     35 O         -4.315002   5.919519   1.756238 O.2        1 UNL1     -0.4528
     36 C         -0.797103   4.905718   2.758576 C.3        1 UNL1     0.0854
     37 C         -0.164065   3.464156   2.85175 C.3        1 UNL1     0.0236
     38 C         1.177494   3.258628   1.997511 C.3        1 UNL1     0.1131
     39 C         1.20752   3.67269   0.471103 C.3        1 UNL1     0.0200
     40 C         -0.071287   3.296482   -0.531672 C.3        1 UNL1     0.0661
     41 C         -0.797008   1.771071   -0.686792 C.3        1 UNL1     0.0091
     42 C         -2.535439   1.311758   -1.050511 C.3        1 UNL1     0.0661
     43 C         -10.252867   2.080868   2.934353 C.2        1 UNL1     0.2131
     44 O         -11.228984   2.121939   3.661158 O.2        1 UNL1     -0.2851
     45 O         -10.895511   4.715843   3.647654 O.3        1 UNL1     -0.5056
     46 O         -5.049898   3.247591   1.208369 O.2        1 UNL1     -0.2836
     47 C         -3.983812   2.29056   -3.065945 C.3        1 UNL1     -0.0566
     48 O         -2.174877   0.315024   -2.087638 O.3        1 UNL1     -0.3909
     49 C         -0.339074   0.894182   0.45726 C.3        1 UNL1     -0.0577
     50 O         -1.064441   4.30058   -0.475491 O.3        1 UNL1     -0.3910
     51 O         -0.215629   5.773906   1.812232 O.3        1 UNL1     -0.3753
     52 C         -1.259456   2.35351   2.959136 C.3        1 UNL1     -0.0564
     53 O         1.942919   2.022493   2.369562 O.3        1 UNL1     -0.4608
     54 C         3.269537   1.79986   2.107934 C.2        1 UNL1     0.3042
     55 O         4.171932   1.619964   2.924732 O.2        1 UNL1     -0.2512
     56 C         3.588668   1.722369   0.642034 C.3        1 UNL1     0.0332
     57 C         1.813181   5.15045   0.384079 C.3        1 UNL1     -0.0567
     58 C         -4.733597   4.836385   4.077649 C.3        1 UNL1     0.0210
     59 C         -1.0787   6.160736   0.743898 C.3        1 UNL1     0.0372
     60 C         -2.266055   4.933281   2.520709 C.2        1 UNL1     -0.0208
     61 C         -2.992463   5.675331   1.683787 C.2        1 UNL1     0.0882
     62 H         -4.348944   2.476538   -0.964419 H        1 UNL1     0.0365
     63 H         -6.368097   2.193656   -0.849416 H        1 UNL1     0.0576
     64 H         -7.228097   -0.329508   -2.395644 H        1 UNL1     0.0615
     65 H         -8.784467   1.69802   -0.599899 H        1 UNL1     0.0622
     66 H         -0.6454   5.338873   3.75728 H        1 UNL1     0.0645
     67 H         0.222304   3.407247   3.884243 H        1 UNL1     0.0362
     68 H         1.833251   3.980031   2.508473 H        1 UNL1     0.0741
     69 H         2.039435   3.174294   -0.008403 H        1 UNL1     0.0359
     70 H         0.411045   3.439366   -1.517573 H        1 UNL1     0.0600
     71 H         -0.203805   1.359321   -1.52675 H        1 UNL1     0.0348
     72 H         -2.421923   2.354611   -1.380489 H        1 UNL1     0.0602
     73 H         -2.7481   4.32037   3.241279 H        1 UNL1     0.0628
     74 H         -2.576841   6.283935   0.879985 H        1 UNL1     0.1022
     75 H         -11.996632   -0.969091   -1.050989 H        1 UNL1     0.0279
     76 H         -10.93478   -1.434682   -2.31945 H        1 UNL1     0.0279
     77 H         -10.710412   -2.01882   -0.621293 H        1 UNL1     0.0279
     78 H         -10.523699   -0.827379   1.432386 H        1 UNL1     0.1553
     79 H         -8.640377   -1.358   1.119712 H        1 UNL1     0.1484
     80 H         -5.300579   -1.182022   2.923673 H        1 UNL1     0.0317
     81 H         -6.796325   -0.591076   3.633216 H        1 UNL1     0.0317
     82 H         -8.075845   -2.536725   2.699953 H        1 UNL1     0.0428
     83 H         -6.739072   -3.03068   3.715212 H        1 UNL1     0.0428
     84 H         -6.098103   -3.190486   -0.487973 H        1 UNL1     0.0428
     85 H         -7.66471   -2.675462   0.031272 H        1 UNL1     0.0428
     86 H         -6.050558   -0.892447   -0.632219 H        1 UNL1     0.0317
     87 H         -4.925995   -1.32368   0.572666 H        1 UNL1     0.0317
     88 H         -6.382912   -5.148969   0.731248 H        1 UNL1     0.0429
     89 H         -6.049019   -5.197745   2.463983 H        1 UNL1     0.0429
     90 H         -8.639458   -4.045947   2.269831 H        1 UNL1     0.0308
     91 H         -9.769796   -6.014225   0.883115 H        1 UNL1     0.0233
     92 H         -9.111328   -4.606058   0.011921 H        1 UNL1     0.0233
     93 H         -8.221665   -6.113186   0.052717 H        1 UNL1     0.0233
     94 H         -7.783385   -5.629805   3.957137 H        1 UNL1     0.0233
     95 H         -9.395106   -6.034413   3.346421 H        1 UNL1     0.0233
     96 H         -7.97877   -6.959528   2.796744 H        1 UNL1     0.0233
     97 H         -9.829133   7.275861   3.709797 H        1 UNL1     0.0280
     98 H         -8.822431   6.763471   5.036898 H        1 UNL1     0.0280
     99 H         -8.07856   7.540175   3.607522 H        1 UNL1     0.0280
     100 H         -11.056598   4.567172   4.562842 H        1 UNL1     0.2922
     101 H         -4.715315   3.07262   -3.268287 H        1 UNL1     0.0236
     102 H         -3.931488   1.560732   -3.873159 H        1 UNL1     0.0236
     103 H         -3.009195   2.806075   -3.089583 H        1 UNL1     0.0236
     104 H         -2.298252   0.738778   -2.959521 H        1 UNL1     0.2098
     105 H         0.484386   1.304835   1.036129 H        1 UNL1     0.0234
     106 H         -1.13599   0.557572   1.120242 H        1 UNL1     0.0234
     107 H         0.0   -0.0   0.0 H        1 UNL1     0.0234
     108 H         -1.525964   4.300598   -1.336168 H        1 UNL1     0.2098
     109 H         -1.27987   1.702431   2.074042 H        1 UNL1     0.0234
     110 H         -1.164425   1.741176   3.86233 H        1 UNL1     0.0234
     111 H         -2.266723   2.784429   3.034436 H        1 UNL1     0.0234
     112 H         4.500385   2.288775   0.429194 H        1 UNL1     0.0342
     113 H         3.678095   0.693661   0.296191 H        1 UNL1     0.0342
     114 H         2.764256   2.189919   0.08624 H        1 UNL1     0.0342
     115 H         1.971521   5.466316   -0.656279 H        1 UNL1     0.0234
     116 H         1.198123   5.911541   0.868325 H        1 UNL1     0.0234
     117 H         2.836513   5.231036   0.789343 H        1 UNL1     0.0234
     118 H         -5.256064   5.416962   4.858011 H        1 UNL1     0.0309
     119 H         -4.851423   3.768374   4.286624 H        1 UNL1     0.0309
     120 H         -3.677462   5.065711   4.256804 H        1 UNL1     0.0309
     121 H         -1.085559   5.350217   0.015634 H        1 UNL1     0.0524
     122 H         -2.117756   6.313838   1.079994 H        1 UNL1     0.0524
     123 H         -0.718839   7.076066   0.282635 H        1 UNL1     0.0524
@<TRIPOS>BOND
     1     1     2    1
     2     1    42    1
     3     2     3    2
     4     3     4    1
     5     4     5    2
     6     5     7    1
     7     6    75    1
     8     6    76    1
     9     6    77    1
    10     7     9   am
    11     9    10    1
    12    10    11    2
    13    10    43    1
    14    11    14    1
    15    11    15    1
    16    12    13   ar
    17    12    27   ar
    18    12    43    1
    19    13    14    1
    20    13    30   ar
    21    14    17    2
    22    15    16    1
    23    16    17    1
    24    16    18    1
    25    16    22    1
    26    18    19    1
    27    19    20    1
    28    20    21    1
    29    21    22    1
    30    23    24    1
    31    23    88    1
    32    23    89    1
    33    24    25    1
    34    24    26    1
    35    24    90    1
    36    25    91    1
    37    25    92    1
    38    25    93    1
    39    26    94    1
    40    26    95    1
    41    26    96    1
    42    27    28   ar
    43    28    29   ar
    44    29    30   ar
    45    29    31    1
    46    30    33    1
    47    31    32    1
    48    32    33    1
    49    32    35    1
    50    34    97    1
    51    34    98    1
    52    34    99    1
    53    35    61    1
    54    36    37    1
    55    36    60    1
    56    37    38    1
    57    38    39    1
    58    39    40    1
    59    40    41    1
    60    41    42    1
    61    45   100    1
    62    47   101    1
    63    47   102    1
    64    47   103    1
    65    48   104    1
    66    49   105    1
    67    49   106    1
    68    49   107    1
    69    50   108    1
    70    51    59    1
    71    52   109    1
    72    52   110    1
    73    52   111    1
    74    53    54    1
    75    54    55    2
    76    54    56    1
    77    56   112    1
    78    56   113    1
    79    56   114    1
    80    57   115    1
    81    57   116    1
    82    57   117    1
    83    58   118    1
    84    58   119    1
    85    58   120    1
    86    59   121    1
    87    59   122    1
    88    59   123    1
    89    60    61    2
    90     1    47    1
    91     1    62    1
    92     2    63    1
    93     3    64    1
    94     4    65    1
    95     5     6    1
    96     7     8    2
    97     9    78    1
    98    15    79    1
    99    18    80    1
   100    18    81    1
   101    19    82    1
   102    19    83    1
   103    20    23    1
   104    21    84    1
   105    21    85    1
   106    22    86    1
   107    22    87    1
   108    27    45    1
   109    28    34    1
   110    32    58    1
   111    33    46    2
   112    36    51    1
   113    36    66    1
   114    37    52    1
   115    37    67    1
   116    38    53    1
   117    38    68    1
   118    42    48    1
   119    42    72    1
   120    43    44    2
   121    60    73    1
   122    61    74    1
   123    39    69    1
   124    39    57    1
   125    40    70    1
   126    40    50    1
   127    41    71    1
   128    41    49    1
