@<TRIPOS>MOLECULE
*****
 123 128 0 0 0
SMALL
GASTEIGER

@<TRIPOS>ATOM
     1 C         2.390102   3.164495   -3.643257 C.3        1 UNL1     0.0009
     2 C         2.728867   3.331478   -5.458303 C.2        1 UNL1     -0.0787
     3 C         3.657385   3.319654   -6.56905 C.2        1 UNL1     -0.0649
     4 C         3.305556   3.439874   -8.220753 C.2        1 UNL1     -0.0542
     5 C         3.785354   3.19425   -9.530921 C.2        1 UNL1     0.0115
     6 C         5.038781   2.790245   -10.354951 C.3        1 UNL1     -0.0348
     7 C         2.738882   3.160005   -10.747766 C.2        1 UNL1     0.2441
     8 O         2.596011   4.09054   -11.528931 O.2        1 UNL1     -0.2702
     9 N         2.186193   1.895141   -11.013859 N.am        1 UNL1     -0.2772
     10 C         1.057895   1.694263   -10.252339 C.2        1 UNL1     0.1049
     11 C         1.257203   1.274586   -9.016066 C.2        1 UNL1     0.0801
     12 C         -1.099217   2.768281   -9.581004 C.ar        1 UNL1     0.0753
     13 C         -0.734797   2.473073   -8.228725 C.ar        1 UNL1     0.0305
     14 C         0.393312   1.599517   -7.913573 C.2        1 UNL1     0.0924
     15 N         2.373738   0.806799   -8.43207 N.pl3        1 UNL1     -0.3170
     16 C         2.01644   0.323538   -7.124763 C.3        1 UNL1     0.1275
     17 N         0.809654   1.142264   -6.736074 N.2        1 UNL1     -0.2557
     18 C         1.519932   -1.10931   -7.292475 C.3        1 UNL1     0.0016
     19 C         2.601628   -1.920601   -7.987695 C.3        1 UNL1     0.0026
     20 N         3.811894   -1.876759   -7.178769 N.3        1 UNL1     -0.3018
     21 C         4.332128   -0.534458   -6.910528 C.3        1 UNL1     0.0026
     22 C         3.230952   0.26153   -6.207884 C.3        1 UNL1     0.0016
     23 C         4.801695   -2.85174   -7.591506 C.3        1 UNL1     0.0012
     24 C         4.334231   -4.273958   -7.244332 C.3        1 UNL1     -0.0339
     25 C         5.518502   -5.178393   -6.865447 C.3        1 UNL1     -0.0615
     26 C         3.292717   -4.22478   -6.139972 C.3        1 UNL1     -0.0615
     27 C         -2.245937   3.501961   -9.875734 C.ar        1 UNL1     0.1347
     28 C         -3.123881   3.957666   -8.908471 C.ar        1 UNL1     0.0342
     29 C         -2.719086   3.697397   -7.581986 C.ar        1 UNL1     0.1435
     30 C         -1.554297   2.995003   -7.270329 C.ar        1 UNL1     0.0774
     31 O         -3.520642   3.980692   -6.532101 O.3        1 UNL1     -0.4436
     32 C         -3.011283   3.174492   -5.459036 C.3        1 UNL1     0.3143
     33 C         -1.56842   2.892218   -5.826029 C.2        1 UNL1     0.2504
     34 C         -4.492496   4.52749   -9.15806 C.3        1 UNL1     -0.0327
     35 O         -2.99018   3.993785   -4.283636 O.2        1 UNL1     -0.4528
     36 C         -3.509788   1.63097   -1.358708 C.3        1 UNL1     0.0854
     37 C         -2.665265   0.367725   -0.936194 C.3        1 UNL1     0.0236
     38 C         -2.121243   0.392108   0.572179 C.3        1 UNL1     0.1131
     39 C         -1.342163   1.661346   1.105412 C.3        1 UNL1     0.0200
     40 C         -0.186378   2.402756   0.158357 C.3        1 UNL1     0.0661
     41 C         1.092393   1.624998   -0.640046 C.3        1 UNL1     0.0091
     42 C         1.925457   2.025794   -2.224587 C.3        1 UNL1     0.0661
     43 C         -0.263831   2.190892   -10.663137 C.2        1 UNL1     0.2131
     44 O         -0.658044   2.02828   -11.803703 O.2        1 UNL1     -0.2851
     45 O         -2.504278   3.784714   -11.215416 O.3        1 UNL1     -0.5056
     46 O         -0.635877   2.657456   -5.090431 O.2        1 UNL1     -0.2836
     47 C         2.87393   4.430195   -2.885698 C.3        1 UNL1     -0.0566
     48 O         3.294345   1.884092   -1.672153 O.3        1 UNL1     -0.3909
     49 C         0.831732   0.135186   -0.643091 C.3        1 UNL1     -0.0577
     50 O         -0.777746   3.361101   -0.695799 O.3        1 UNL1     -0.3910
     51 O         -3.536046   2.692658   -0.431584 O.3        1 UNL1     -0.3753
     52 C         -1.804827   -0.179877   -2.121406 C.3        1 UNL1     -0.0564
     53 O         -1.635235   -0.942472   1.056969 O.3        1 UNL1     -0.4608
     54 C         -1.001693   -1.172469   2.250139 C.2        1 UNL1     0.3042
     55 O         0.19869   -1.054873   2.493224 O.2        1 UNL1     -0.2512
     56 C         -1.935532   -1.554896   3.362977 C.3        1 UNL1     0.0332
     57 C         -2.399911   2.595329   1.858418 C.3        1 UNL1     -0.0567
     58 C         -3.803989   1.847139   -5.494824 C.3        1 UNL1     0.0210
     59 C         -4.696031   3.520587   -0.501116 C.3        1 UNL1     0.0372
     60 C         -3.144098   2.220087   -2.675664 C.2        1 UNL1     -0.0208
     61 C         -2.965398   3.492285   -3.033888 C.2        1 UNL1     0.0882
     62 H         1.322854   3.311443   -3.848441 H        1 UNL1     0.0365
     63 H         1.738526   3.608584   -5.825598 H        1 UNL1     0.0576
     64 H         4.708852   3.056741   -6.433391 H        1 UNL1     0.0615
     65 H         2.2668   3.780497   -8.241821 H        1 UNL1     0.0622
     66 H         -4.535216   1.252012   -1.472435 H        1 UNL1     0.0645
     67 H         -3.407967   -0.447553   -0.888487 H        1 UNL1     0.0362
     68 H         -3.079646   0.389355   1.113454 H        1 UNL1     0.0741
     69 H         -0.781764   1.380653   1.987212 H        1 UNL1     0.0359
     70 H         0.334907   3.002908   0.928512 H        1 UNL1     0.0600
     71 H         1.880972   1.705774   0.133631 H        1 UNL1     0.0348
     72 H         1.414147   2.946927   -1.909322 H        1 UNL1     0.0602
     73 H         -3.151805   1.457022   -3.413851 H        1 UNL1     0.0628
     74 H         -2.886396   4.324751   -2.333889 H        1 UNL1     0.1022
     75 H         5.928095   3.383483   -10.032115 H        1 UNL1     0.0279
     76 H         5.385925   1.765947   -10.239309 H        1 UNL1     0.0279
     77 H         4.961137   3.075112   -11.414443 H        1 UNL1     0.0279
     78 H         2.856192   1.170083   -10.765926 H        1 UNL1     0.1553
     79 H         3.165953   0.461058   -8.941767 H        1 UNL1     0.1484
     80 H         1.281346   -1.522888   -6.305157 H        1 UNL1     0.0317
     81 H         0.593413   -1.136601   -7.87597 H        1 UNL1     0.0317
     82 H         2.793369   -1.554426   -9.007039 H        1 UNL1     0.0428
     83 H         2.226159   -2.938306   -8.098827 H        1 UNL1     0.0428
     84 H         5.193918   -0.524742   -6.235964 H        1 UNL1     0.0428
     85 H         4.702992   -0.049662   -7.824174 H        1 UNL1     0.0428
     86 H         3.687921   1.186842   -5.909614 H        1 UNL1     0.0317
     87 H         2.975348   -0.214563   -5.253369 H        1 UNL1     0.0317
     88 H         4.919617   -2.7787   -8.680567 H        1 UNL1     0.0429
     89 H         5.782053   -2.637524   -7.146778 H        1 UNL1     0.0429
     90 H         3.827782   -4.708046   -8.114556 H        1 UNL1     0.0308
     91 H         6.177287   -5.350681   -7.721848 H        1 UNL1     0.0233
     92 H         6.097182   -4.73621   -6.051068 H        1 UNL1     0.0233
     93 H         5.194296   -6.164027   -6.51013 H        1 UNL1     0.0233
     94 H         3.240469   -5.191079   -5.626773 H        1 UNL1     0.0233
     95 H         3.566224   -3.465483   -5.401986 H        1 UNL1     0.0233
     96 H         2.301037   -3.990221   -6.536862 H        1 UNL1     0.0233
     97 H         -5.209158   3.759984   -9.434755 H        1 UNL1     0.0280
     98 H         -4.905748   5.017201   -8.266622 H        1 UNL1     0.0280
     99 H         -4.441893   5.264207   -9.976463 H        1 UNL1     0.0280
     100 H         -2.852954   3.062502   -11.707816 H        1 UNL1     0.2922
     101 H         2.016834   5.045566   -2.613007 H        1 UNL1     0.0236
     102 H         3.626138   4.996489   -3.433856 H        1 UNL1     0.0236
     103 H         3.355245   4.179531   -1.925647 H        1 UNL1     0.0236
     104 H         3.286273   2.250718   -0.766344 H        1 UNL1     0.2098
     105 H         0.569807   -0.272928   -1.61605 H        1 UNL1     0.0234
     106 H         1.614811   -0.465057   -0.180032 H        1 UNL1     0.0234
     107 H         0.0   -0.0   0.0 H        1 UNL1     0.0234
     108 H         -0.517062   4.242943   -0.366911 H        1 UNL1     0.2098
     109 H         -2.058611   0.300803   -3.076525 H        1 UNL1     0.0234
     110 H         -0.726976   -0.097538   -1.944767 H        1 UNL1     0.0234
     111 H         -1.967734   -1.254673   -2.277032 H        1 UNL1     0.0234
     112 H         -1.370722   -1.703143   4.288373 H        1 UNL1     0.0342
     113 H         -2.728465   -0.821644   3.502413 H        1 UNL1     0.0342
     114 H         -2.408772   -2.511072   3.100418 H        1 UNL1     0.0342
     115 H         -1.943832   3.130623   2.702598 H        1 UNL1     0.0234
     116 H         -2.872465   3.339627   1.214397 H        1 UNL1     0.0234
     117 H         -3.198695   2.031435   2.370189 H        1 UNL1     0.0234
     118 H         -4.546368   1.785488   -4.679914 H        1 UNL1     0.0309
     119 H         -4.306823   1.67268   -6.451341 H        1 UNL1     0.0309
     120 H         -3.167176   0.972458   -5.323046 H        1 UNL1     0.0309
     121 H         -4.423132   4.503332   -0.117585 H        1 UNL1     0.0524
     122 H         -5.052441   3.655332   -1.535937 H        1 UNL1     0.0524
     123 H         -5.497947   3.094874   0.095368 H        1 UNL1     0.0524
@<TRIPOS>BOND
     1     1     2    1
     2     1    42    1
     3     2     3    2
     4     3     4    1
     5     4     5    2
     6     5     7    1
     7     6    75    1
     8     6    76    1
     9     6    77    1
    10     7     9   am
    11     9    10    1
    12    10    11    2
    13    10    43    1
    14    11    14    1
    15    11    15    1
    16    12    13   ar
    17    12    27   ar
    18    12    43    1
    19    13    14    1
    20    13    30   ar
    21    14    17    2
    22    15    16    1
    23    16    17    1
    24    16    18    1
    25    16    22    1
    26    18    19    1
    27    19    20    1
    28    20    21    1
    29    21    22    1
    30    23    24    1
    31    23    88    1
    32    23    89    1
    33    24    25    1
    34    24    26    1
    35    24    90    1
    36    25    91    1
    37    25    92    1
    38    25    93    1
    39    26    94    1
    40    26    95    1
    41    26    96    1
    42    27    28   ar
    43    28    29   ar
    44    29    30   ar
    45    29    31    1
    46    30    33    1
    47    31    32    1
    48    32    33    1
    49    32    35    1
    50    34    97    1
    51    34    98    1
    52    34    99    1
    53    35    61    1
    54    36    37    1
    55    36    60    1
    56    37    38    1
    57    38    39    1
    58    39    40    1
    59    40    41    1
    60    41    42    1
    61    45   100    1
    62    47   101    1
    63    47   102    1
    64    47   103    1
    65    48   104    1
    66    49   105    1
    67    49   106    1
    68    49   107    1
    69    50   108    1
    70    51    59    1
    71    52   109    1
    72    52   110    1
    73    52   111    1
    74    53    54    1
    75    54    55    2
    76    54    56    1
    77    56   112    1
    78    56   113    1
    79    56   114    1
    80    57   115    1
    81    57   116    1
    82    57   117    1
    83    58   118    1
    84    58   119    1
    85    58   120    1
    86    59   121    1
    87    59   122    1
    88    59   123    1
    89    60    61    2
    90     1    47    1
    91     1    62    1
    92     2    63    1
    93     3    64    1
    94     4    65    1
    95     5     6    1
    96     7     8    2
    97     9    78    1
    98    15    79    1
    99    18    80    1
   100    18    81    1
   101    19    82    1
   102    19    83    1
   103    20    23    1
   104    21    84    1
   105    21    85    1
   106    22    86    1
   107    22    87    1
   108    27    45    1
   109    28    34    1
   110    32    58    1
   111    33    46    2
   112    36    51    1
   113    36    66    1
   114    37    52    1
   115    37    67    1
   116    38    53    1
   117    38    68    1
   118    42    48    1
   119    42    72    1
   120    43    44    2
   121    60    73    1
   122    61    74    1
   123    39    69    1
   124    39    57    1
   125    40    70    1
   126    40    50    1
   127    41    71    1
   128    41    49    1
