@<TRIPOS>MOLECULE
*****
 123 128 0 0 0
SMALL
GASTEIGER

@<TRIPOS>ATOM
     1 C         0.402231   -4.639651   2.130299 C.3        1 UNL1     0.0009
     2 C         -0.55776   -6.174545   2.529741 C.2        1 UNL1     -0.0787
     3 C         -1.454586   -6.903924   3.401381 C.2        1 UNL1     -0.0649
     4 C         -2.151422   -8.424646   3.140264 C.2        1 UNL1     -0.0542
     5 C         -3.202434   -9.299293   3.511001 C.2        1 UNL1     0.0115
     6 C         -4.349103   -9.522758   4.534982 C.3        1 UNL1     -0.0348
     7 C         -3.57141   -10.524911   2.542133 C.2        1 UNL1     0.2441
     8 O         -3.225231   -11.676872   2.765003 O.2        1 UNL1     -0.2702
     9 N         -4.536061   -10.231571   1.562565 N.am        1 UNL1     -0.2772
     10 C         -3.934414   -9.73099   0.430858 C.2        1 UNL1     0.1049
     11 C         -3.651003   -8.441138   0.444392 C.2        1 UNL1     0.0801
     12 C         -2.071111   -10.162806   -1.181274 C.ar        1 UNL1     0.0753
     13 C         -1.677736   -8.802992   -0.969686 C.ar        1 UNL1     0.0305
     14 C         -2.533655   -7.861866   -0.250843 C.2        1 UNL1     0.0924
     15 N         -4.040005   -7.480173   1.299817 N.pl3        1 UNL1     -0.3170
     16 C         -3.597704   -6.216789   0.772101 C.3        1 UNL1     0.1275
     17 N         -2.377852   -6.55652   -0.049037 N.2        1 UNL1     -0.2557
     18 C         -4.657316   -5.744832   -0.21895 C.3        1 UNL1     0.0016
     19 C         -5.999859   -5.69254   0.49269 C.3        1 UNL1     0.0026
     20 N         -5.895233   -4.779312   1.622335 N.3        1 UNL1     -0.3018
     21 C         -4.858974   -5.116523   2.600509 C.3        1 UNL1     0.0026
     22 C         -3.518407   -5.159046   1.865005 C.3        1 UNL1     0.0016
     23 C         -7.184046   -4.427447   2.184293 C.3        1 UNL1     0.0012
     24 C         -7.313977   -4.971071   3.615847 C.3        1 UNL1     -0.0339
     25 C         -5.987737   -5.569729   4.11259 C.3        1 UNL1     -0.0615
     26 C         -7.816725   -3.879015   4.543984 C.3        1 UNL1     -0.0615
     27 C         -1.307739   -11.020659   -1.969609 C.ar        1 UNL1     0.1347
     28 C         -0.157419   -10.623356   -2.627608 C.ar        1 UNL1     0.0342
     29 C         0.236909   -9.294135   -2.365234 C.ar        1 UNL1     0.1435
     30 C         -0.498318   -8.433925   -1.548717 C.ar        1 UNL1     0.0774
     31 O         1.274069   -8.724937   -3.017401 O.3        1 UNL1     -0.4436
     32 C         1.071912   -7.312688   -2.857537 C.3        1 UNL1     0.3143
     33 C         0.211102   -7.173505   -1.618244 C.2        1 UNL1     0.2504
     34 C         0.570176   -11.40825   -3.683377 C.3        1 UNL1     -0.0327
     35 O         2.345102   -6.732416   -2.548464 O.2        1 UNL1     -0.4528
     36 C         2.247479   -3.204384   -3.945441 C.3        1 UNL1     0.0854
     37 C         1.231933   -2.038013   -3.635975 C.3        1 UNL1     0.0236
     38 C         1.905168   -0.669287   -3.140911 C.3        1 UNL1     0.1131
     39 C         2.949386   -0.692695   -1.952917 C.3        1 UNL1     0.0200
     40 C         2.660965   -1.61395   -0.592571 C.3        1 UNL1     0.0661
     41 C         1.228341   -1.623285   0.315786 C.3        1 UNL1     0.0091
     42 C         0.425535   -2.977179   1.258058 C.3        1 UNL1     0.0661
     43 C         -3.366022   -10.604549   -0.606533 C.2        1 UNL1     0.2131
     44 O         -3.993028   -11.563651   -1.018508 O.2        1 UNL1     -0.2851
     45 O         -1.736391   -12.341188   -2.087502 O.3        1 UNL1     -0.5056
     46 O         0.142876   -6.241064   -0.84899 O.2        1 UNL1     -0.2836
     47 C         1.655834   -4.535609   3.040044 C.3        1 UNL1     -0.0566
     48 O         0.197202   -2.152606   2.469281 O.3        1 UNL1     -0.3909
     49 C         0.141736   -0.934646   -0.479549 C.3        1 UNL1     -0.0577
     50 O         3.126139   -2.936116   -0.774819 O.3        1 UNL1     -0.3910
     51 O         3.589584   -2.96392   -3.587166 O.3        1 UNL1     -0.3753
     52 C         -0.103402   -2.575866   -3.025611 C.3        1 UNL1     -0.0564
     53 O         0.977203   0.50912   -3.191562 O.3        1 UNL1     -0.4608
     54 C         0.399186   1.113247   -2.10581 C.2        1 UNL1     0.3042
     55 O         -0.052476   0.567395   -1.099885 O.2        1 UNL1     -0.2512
     56 C         0.394221   2.613432   -2.184131 C.3        1 UNL1     0.0332
     57 C         4.411948   -0.752896   -2.597481 C.3        1 UNL1     -0.0567
     58 C         0.256953   -6.845644   -4.086049 C.3        1 UNL1     0.0210
     59 C         3.784956   -2.55705   -2.233595 C.3        1 UNL1     0.0372
     60 C         1.880113   -4.527122   -3.370493 C.2        1 UNL1     -0.0208
     61 C         2.625175   -5.42724   -2.727518 C.2        1 UNL1     0.0882
     62 H         0.7314   -5.111565   1.196674 H        1 UNL1     0.0365
     63 H         -0.238494   -6.831405   1.717907 H        1 UNL1     0.0576
     64 H         -1.907392   -6.435592   4.278159 H        1 UNL1     0.0615
     65 H         -1.579435   -8.833066   2.302705 H        1 UNL1     0.0622
     66 H         2.20253   -3.327208   -5.036743 H        1 UNL1     0.0645
     67 H         0.847386   -1.746871   -4.62891 H        1 UNL1     0.0362
     68 H         2.490029   -0.416782   -4.038519 H        1 UNL1     0.0741
     69 H         3.038403   0.306591   -1.548056 H        1 UNL1     0.0359
     70 H         3.389742   -1.157953   0.104574 H        1 UNL1     0.0600
     71 H         1.471432   -0.847483   1.068113 H        1 UNL1     0.0348
     72 H         1.473138   -3.282476   1.121545 H        1 UNL1     0.0602
     73 H         0.884554   -4.765861   -3.651764 H        1 UNL1     0.0628
     74 H         3.632444   -5.240211   -2.353797 H        1 UNL1     0.1022
     75 H         -3.940416   -9.594316   5.57175 H        1 UNL1     0.0279
     76 H         -5.080699   -8.723067   4.626246 H        1 UNL1     0.0279
     77 H         -4.832731   -10.504373   4.424361 H        1 UNL1     0.0279
     78 H         -5.172572   -9.518309   1.912121 H        1 UNL1     0.1553
     79 H         -4.829356   -7.566791   1.913296 H        1 UNL1     0.1484
     80 H         -4.370813   -4.759712   -0.606534 H        1 UNL1     0.0317
     81 H         -4.713051   -6.417075   -1.081871 H        1 UNL1     0.0317
     82 H         -6.326527   -6.690709   0.819582 H        1 UNL1     0.0428
     83 H         -6.741155   -5.355454   -0.232503 H        1 UNL1     0.0428
     84 H         -4.747685   -4.372774   3.395659 H        1 UNL1     0.0428
     85 H         -5.090135   -6.047481   3.136418 H        1 UNL1     0.0428
     86 H         -2.772447   -5.275545   2.629179 H        1 UNL1     0.0317
     87 H         -3.293413   -4.173736   1.438816 H        1 UNL1     0.0317
     88 H         -7.254194   -3.332368   2.218591 H        1 UNL1     0.0429
     89 H         -8.006162   -4.782662   1.54969 H        1 UNL1     0.0429
     90 H         -8.079734   -5.755608   3.634014 H        1 UNL1     0.0308
     91 H         -5.26178   -5.658224   3.298798 H        1 UNL1     0.0233
     92 H         -5.560817   -4.955408   4.908805 H        1 UNL1     0.0233
     93 H         -6.115163   -6.573478   4.535774 H        1 UNL1     0.0233
     94 H         -8.659879   -4.247134   5.138471 H        1 UNL1     0.0233
     95 H         -7.022655   -3.580281   5.234037 H        1 UNL1     0.0233
     96 H         -8.146736   -2.999748   3.983671 H        1 UNL1     0.0233
     97 H         1.426452   -10.867575   -4.075414 H        1 UNL1     0.0280
     98 H         0.965222   -12.356306   -3.295585 H        1 UNL1     0.0280
     99 H         -0.114405   -11.624605   -4.519819 H        1 UNL1     0.0280
     100 H         -1.914082   -12.617903   -2.969248 H        1 UNL1     0.2922
     101 H         2.208259   -5.474642   3.013601 H        1 UNL1     0.0236
     102 H         1.421983   -4.227211   4.058468 H        1 UNL1     0.0236
     103 H         2.37103   -3.77979   2.674771 H        1 UNL1     0.0236
     104 H         0.202007   -1.215216   2.193154 H        1 UNL1     0.2098
     105 H         0.399598   -0.740279   -1.517596 H        1 UNL1     0.0234
     106 H         -0.838275   -1.407353   -0.415879 H        1 UNL1     0.0234
     107 H         -0.0   0.0   0.0 H        1 UNL1     0.0234
     108 H         4.101634   -2.908181   -0.737436 H        1 UNL1     0.2098
     109 H         -0.858804   -2.78413   -3.796133 H        1 UNL1     0.0234
     110 H         0.036326   -3.463989   -2.399946 H        1 UNL1     0.0234
     111 H         -0.563141   -1.843222   -2.348987 H        1 UNL1     0.0234
     112 H         0.897012   2.939972   -3.09951 H        1 UNL1     0.0342
     113 H         -0.612858   3.023338   -2.12402 H        1 UNL1     0.0342
     114 H         0.963936   3.003503   -1.329477 H        1 UNL1     0.0342
     115 H         4.957839   -1.654787   -2.287993 H        1 UNL1     0.0234
     116 H         4.417629   -0.72396   -3.688892 H        1 UNL1     0.0234
     117 H         5.086642   0.04041   -2.23225 H        1 UNL1     0.0234
     118 H         -0.047453   -7.691182   -4.72746 H        1 UNL1     0.0309
     119 H         -0.6297   -6.262791   -3.817103 H        1 UNL1     0.0309
     120 H         0.841858   -6.213111   -4.762729 H        1 UNL1     0.0309
     121 H         4.771024   -2.902706   -1.924485 H        1 UNL1     0.0524
     122 H         3.766815   -1.460366   -2.119616 H        1 UNL1     0.0524
     123 H         3.019135   -2.990452   -1.59659 H        1 UNL1     0.0524
@<TRIPOS>BOND
     1     1     2    1
     2     1    42    1
     3     2     3    2
     4     3     4    1
     5     4     5    2
     6     5     7    1
     7     6    75    1
     8     6    76    1
     9     6    77    1
    10     7     9   am
    11     9    10    1
    12    10    11    2
    13    10    43    1
    14    11    14    1
    15    11    15    1
    16    12    13   ar
    17    12    27   ar
    18    12    43    1
    19    13    14    1
    20    13    30   ar
    21    14    17    2
    22    15    16    1
    23    16    17    1
    24    16    18    1
    25    16    22    1
    26    18    19    1
    27    19    20    1
    28    20    21    1
    29    21    22    1
    30    23    24    1
    31    23    88    1
    32    23    89    1
    33    24    25    1
    34    24    26    1
    35    24    90    1
    36    25    91    1
    37    25    92    1
    38    25    93    1
    39    26    94    1
    40    26    95    1
    41    26    96    1
    42    27    28   ar
    43    28    29   ar
    44    29    30   ar
    45    29    31    1
    46    30    33    1
    47    31    32    1
    48    32    33    1
    49    32    35    1
    50    34    97    1
    51    34    98    1
    52    34    99    1
    53    35    61    1
    54    36    37    1
    55    36    60    1
    56    37    38    1
    57    38    39    1
    58    39    40    1
    59    40    41    1
    60    41    42    1
    61    45   100    1
    62    47   101    1
    63    47   102    1
    64    47   103    1
    65    48   104    1
    66    49   105    1
    67    49   106    1
    68    49   107    1
    69    50   108    1
    70    51    59    1
    71    52   109    1
    72    52   110    1
    73    52   111    1
    74    53    54    1
    75    54    55    2
    76    54    56    1
    77    56   112    1
    78    56   113    1
    79    56   114    1
    80    57   115    1
    81    57   116    1
    82    57   117    1
    83    58   118    1
    84    58   119    1
    85    58   120    1
    86    59   121    1
    87    59   122    1
    88    59   123    1
    89    60    61    2
    90     1    47    1
    91     1    62    1
    92     2    63    1
    93     3    64    1
    94     4    65    1
    95     5     6    1
    96     7     8    2
    97     9    78    1
    98    15    79    1
    99    18    80    1
   100    18    81    1
   101    19    82    1
   102    19    83    1
   103    20    23    1
   104    21    84    1
   105    21    85    1
   106    22    86    1
   107    22    87    1
   108    27    45    1
   109    28    34    1
   110    32    58    1
   111    33    46    2
   112    36    51    1
   113    36    66    1
   114    37    52    1
   115    37    67    1
   116    38    53    1
   117    38    68    1
   118    42    48    1
   119    42    72    1
   120    43    44    2
   121    60    73    1
   122    61    74    1
   123    39    69    1
   124    39    57    1
   125    40    70    1
   126    40    50    1
   127    41    71    1
   128    41    49    1
