@<TRIPOS>MOLECULE
*****
 123 128 0 0 0
SMALL
GASTEIGER

@<TRIPOS>ATOM
     1 C         2.846039   1.891274   -2.313322 C.3        1 UNL1     0.0009
     2 C         2.570836   3.065689   -3.721175 C.2        1 UNL1     -0.0787
     3 C         2.439409   3.315445   -5.141173 C.2        1 UNL1     -0.0649
     4 C         2.027155   4.767143   -5.90862 C.2        1 UNL1     -0.0542
     5 C         1.531244   5.350112   -7.100802 C.2        1 UNL1     0.0115
     6 C         1.174987   5.064305   -8.585631 C.3        1 UNL1     -0.0348
     7 C         0.954644   6.847487   -7.051919 C.2        1 UNL1     0.2441
     8 O         1.585889   7.816931   -7.449705 O.2        1 UNL1     -0.2702
     9 N         -0.418497   6.940808   -6.765694 N.am        1 UNL1     -0.2772
     10 C         -0.623209   6.991869   -5.405986 C.2        1 UNL1     0.1049
     11 C         -0.637455   5.83145   -4.775552 C.2        1 UNL1     0.0801
     12 C         0.140322   8.155449   -3.327419 C.ar        1 UNL1     0.0753
     13 C         0.308079   6.854488   -2.754735 C.ar        1 UNL1     0.0305
     14 C         -0.200968   5.65555   -3.416907 C.2        1 UNL1     0.0924
     15 N         -0.693222   4.581829   -5.267349 N.pl3        1 UNL1     -0.3170
     16 C         -0.858974   3.680171   -4.158389 C.3        1 UNL1     0.1275
     17 N         -0.223344   4.395634   -2.991423 N.2        1 UNL1     -0.2557
     18 C         -2.35174   3.61136   -3.850788 C.3        1 UNL1     0.0016
     19 C         -3.089822   3.195924   -5.11342 C.3        1 UNL1     0.0026
     20 N         -2.583808   1.90071   -5.546316 N.3        1 UNL1     -0.3018
     21 C         -1.14375   1.851501   -5.807429 C.3        1 UNL1     0.0026
     22 C         -0.421908   2.26796   -4.524697 C.3        1 UNL1     0.0016
     23 C         -3.416371   1.279066   -6.556782 C.3        1 UNL1     0.0012
     24 C         -3.005192   1.752962   -7.959676 C.3        1 UNL1     -0.0339
     25 C         -2.12521   0.711091   -8.669742 C.3        1 UNL1     -0.0615
     26 C         -4.239348   2.092646   -8.777142 C.3        1 UNL1     -0.0615
     27 C         0.519749   9.303104   -2.635291 C.ar        1 UNL1     0.1347
     28 C         1.039145   9.278356   -1.353236 C.ar        1 UNL1     0.0342
     29 C         1.240721   7.983939   -0.828817 C.ar        1 UNL1     0.1435
     30 C         0.898988   6.823829   -1.524938 C.ar        1 UNL1     0.0774
     31 O         1.63603   7.794959   0.449081 O.3        1 UNL1     -0.4436
     32 C         1.275372   6.43691   0.743196 C.3        1 UNL1     0.3143
     33 C         1.197342   5.747154   -0.603786 C.2        1 UNL1     0.2504
     34 C         1.232568   10.469867   -0.457139 C.3        1 UNL1     -0.0327
     35 O         2.373728   5.848094   1.450417 O.2        1 UNL1     -0.4528
     36 C         0.853754   3.228329   3.738342 C.3        1 UNL1     0.0854
     37 C         -0.048842   1.98806   3.371495 C.3        1 UNL1     0.0236
     38 C         0.498328   0.575074   3.896681 C.3        1 UNL1     0.1131
     39 C         1.994429   0.153954   3.602384 C.3        1 UNL1     0.0200
     40 C         2.661791   0.405091   2.094407 C.3        1 UNL1     0.0661
     41 C         1.966221   -0.04148   0.613068 C.3        1 UNL1     0.0091
     42 C         2.073191   0.749937   -1.038483 C.3        1 UNL1     0.0661
     43 C         -0.533641   8.247755   -4.646326 C.2        1 UNL1     0.2131
     44 O         -1.079525   9.256966   -5.054052 O.2        1 UNL1     -0.2851
     45 O         0.36496   10.527396   -3.282275 O.3        1 UNL1     -0.5056
     46 O         1.365659   4.576243   -0.861644 O.2        1 UNL1     -0.2836
     47 C         4.341571   1.48196   -2.236985 C.3        1 UNL1     -0.0566
     48 O         2.365801   -0.516451   -1.752457 O.3        1 UNL1     -0.3909
     49 C         0.512403   -0.390065   0.841969 C.3        1 UNL1     -0.0577
     50 O         3.209412   1.70459   1.998815 O.3        1 UNL1     -0.3910
     51 O         2.102177   2.930662   4.321664 O.3        1 UNL1     -0.3753
     52 C         -0.71818   2.150495   1.967732 C.3        1 UNL1     -0.0564
     53 O         -0.525869   -0.520862   3.84902 O.3        1 UNL1     -0.4608
     54 C         -1.1001   -1.120468   4.939278 C.2        1 UNL1     0.3042
     55 O         -0.545636   -1.822604   5.783916 O.2        1 UNL1     -0.2512
     56 C         -2.559871   -0.804403   5.100162 C.3        1 UNL1     0.0332
     57 C         2.868582   0.554783   4.880417 C.3        1 UNL1     -0.0567
     58 C         -0.141078   6.484711   1.361995 C.3        1 UNL1     0.0210
     59 C         2.692591   4.003431   5.054088 C.3        1 UNL1     0.0372
     60 C         1.118063   4.167971   2.614787 C.2        1 UNL1     -0.0208
     61 C         2.251362   4.754177   2.226535 C.2        1 UNL1     0.0882
     62 H         2.714318   2.727024   -1.615552 H        1 UNL1     0.0365
     63 H         2.532226   4.017669   -3.18759 H        1 UNL1     0.0576
     64 H         2.439784   2.500253   -5.868201 H        1 UNL1     0.0615
     65 H         2.133957   5.517842   -5.120884 H        1 UNL1     0.0622
     66 H         0.261078   3.793914   4.471073 H        1 UNL1     0.0645
     67 H         -0.950794   2.11934   3.994236 H        1 UNL1     0.0362
     68 H         0.453215   0.752263   4.982079 H        1 UNL1     0.0741
     69 H         2.085425   -0.916886   3.726604 H        1 UNL1     0.0359
     70 H         3.54247   -0.261898   2.162149 H        1 UNL1     0.0600
     71 H         2.412944   -1.046974   0.485087 H        1 UNL1     0.0348
     72 H         2.923939   1.138733   -0.460226 H        1 UNL1     0.0602
     73 H         0.195685   4.45   2.171024 H        1 UNL1     0.0628
     74 H         3.242733   4.480971   2.589551 H        1 UNL1     0.1022
     75 H         1.508448   4.039589   -8.87854 H        1 UNL1     0.0279
     76 H         0.116621   5.046713   -8.835876 H        1 UNL1     0.0279
     77 H         1.747612   5.687657   -9.287937 H        1 UNL1     0.0279
     78 H         -0.898019   6.114477   -7.116854 H        1 UNL1     0.1553
     79 H         -1.000325   4.362382   -6.197114 H        1 UNL1     0.1484
     80 H         -2.516374   2.89524   -3.036643 H        1 UNL1     0.0317
     81 H         -2.723365   4.579029   -3.497004 H        1 UNL1     0.0317
     82 H         -2.987946   3.947167   -5.910394 H        1 UNL1     0.0428
     83 H         -4.152445   3.154851   -4.872183 H        1 UNL1     0.0428
     84 H         -0.776509   0.850255   -6.053298 H        1 UNL1     0.0428
     85 H         -0.865411   2.459353   -6.679415 H        1 UNL1     0.0428
     86 H         0.621679   2.092948   -4.709856 H        1 UNL1     0.0317
     87 H         -0.657763   1.564597   -3.716768 H        1 UNL1     0.0317
     88 H         -3.270645   0.192496   -6.498264 H        1 UNL1     0.0429
     89 H         -4.480764   1.471324   -6.370025 H        1 UNL1     0.0429
     90 H         -2.437983   2.687138   -7.871336 H        1 UNL1     0.0308
     91 H         -1.886936   1.021703   -9.691431 H        1 UNL1     0.0233
     92 H         -1.196116   0.549751   -8.118051 H        1 UNL1     0.0233
     93 H         -2.612819   -0.268726   -8.740667 H        1 UNL1     0.0233
     94 H         -4.092289   1.800158   -9.822446 H        1 UNL1     0.0233
     95 H         -5.104552   1.545447   -8.39249 H        1 UNL1     0.0233
     96 H         -4.456613   3.163979   -8.745361 H        1 UNL1     0.0233
     97 H         2.036375   11.113193   -0.802475 H        1 UNL1     0.0280
     98 H         0.337665   11.104279   -0.413255 H        1 UNL1     0.0280
     99 H         1.476464   10.129129   0.562423 H        1 UNL1     0.0280
     100 H         -0.479351   10.926883   -3.167511 H        1 UNL1     0.2922
     101 H         4.571175   0.777401   -3.03607 H        1 UNL1     0.0236
     102 H         4.632033   1.099915   -1.258897 H        1 UNL1     0.0236
     103 H         5.014619   2.337061   -2.415873 H        1 UNL1     0.0236
     104 H         3.202182   -0.871421   -1.392689 H        1 UNL1     0.2098
     105 H         0.308625   -1.456796   0.890666 H        1 UNL1     0.0234
     106 H         0.048617   0.122003   1.684949 H        1 UNL1     0.0234
     107 H         -0.0   0.0   0.0 H        1 UNL1     0.0234
     108 H         2.483899   2.337814   2.161381 H        1 UNL1     0.2098
     109 H         0.022894   2.261656   1.163889 H        1 UNL1     0.0234
     110 H         -1.40589   1.33422   1.721778 H        1 UNL1     0.0234
     111 H         -1.345529   3.050562   1.920197 H        1 UNL1     0.0234
     112 H         -2.67889   0.140146   5.639612 H        1 UNL1     0.0342
     113 H         -3.080681   -0.776692   4.144216 H        1 UNL1     0.0342
     114 H         -3.018067   -1.598269   5.705965 H        1 UNL1     0.0342
     115 H         2.358553   0.301095   5.819938 H        1 UNL1     0.0234
     116 H         3.855861   0.089338   4.906694 H        1 UNL1     0.0234
     117 H         3.002309   1.643937   4.997901 H        1 UNL1     0.0234
     118 H         -0.761713   5.628888   1.043585 H        1 UNL1     0.0309
     119 H         -0.130799   6.532447   2.45553 H        1 UNL1     0.0309
     120 H         -0.717497   7.353574   1.025952 H        1 UNL1     0.0309
     121 H         2.327529   3.943104   6.079001 H        1 UNL1     0.0524
     122 H         3.792408   3.930999   5.088628 H        1 UNL1     0.0524
     123 H         2.415711   4.956813   4.613073 H        1 UNL1     0.0524
@<TRIPOS>BOND
     1     1     2    1
     2     1    42    1
     3     2     3    2
     4     3     4    1
     5     4     5    2
     6     5     7    1
     7     6    75    1
     8     6    76    1
     9     6    77    1
    10     7     9   am
    11     9    10    1
    12    10    11    2
    13    10    43    1
    14    11    14    1
    15    11    15    1
    16    12    13   ar
    17    12    27   ar
    18    12    43    1
    19    13    14    1
    20    13    30   ar
    21    14    17    2
    22    15    16    1
    23    16    17    1
    24    16    18    1
    25    16    22    1
    26    18    19    1
    27    19    20    1
    28    20    21    1
    29    21    22    1
    30    23    24    1
    31    23    88    1
    32    23    89    1
    33    24    25    1
    34    24    26    1
    35    24    90    1
    36    25    91    1
    37    25    92    1
    38    25    93    1
    39    26    94    1
    40    26    95    1
    41    26    96    1
    42    27    28   ar
    43    28    29   ar
    44    29    30   ar
    45    29    31    1
    46    30    33    1
    47    31    32    1
    48    32    33    1
    49    32    35    1
    50    34    97    1
    51    34    98    1
    52    34    99    1
    53    35    61    1
    54    36    37    1
    55    36    60    1
    56    37    38    1
    57    38    39    1
    58    39    40    1
    59    40    41    1
    60    41    42    1
    61    45   100    1
    62    47   101    1
    63    47   102    1
    64    47   103    1
    65    48   104    1
    66    49   105    1
    67    49   106    1
    68    49   107    1
    69    50   108    1
    70    51    59    1
    71    52   109    1
    72    52   110    1
    73    52   111    1
    74    53    54    1
    75    54    55    2
    76    54    56    1
    77    56   112    1
    78    56   113    1
    79    56   114    1
    80    57   115    1
    81    57   116    1
    82    57   117    1
    83    58   118    1
    84    58   119    1
    85    58   120    1
    86    59   121    1
    87    59   122    1
    88    59   123    1
    89    60    61    2
    90     1    47    1
    91     1    62    1
    92     2    63    1
    93     3    64    1
    94     4    65    1
    95     5     6    1
    96     7     8    2
    97     9    78    1
    98    15    79    1
    99    18    80    1
   100    18    81    1
   101    19    82    1
   102    19    83    1
   103    20    23    1
   104    21    84    1
   105    21    85    1
   106    22    86    1
   107    22    87    1
   108    27    45    1
   109    28    34    1
   110    32    58    1
   111    33    46    2
   112    36    51    1
   113    36    66    1
   114    37    52    1
   115    37    67    1
   116    38    53    1
   117    38    68    1
   118    42    48    1
   119    42    72    1
   120    43    44    2
   121    60    73    1
   122    61    74    1
   123    39    69    1
   124    39    57    1
   125    40    70    1
   126    40    50    1
   127    41    71    1
   128    41    49    1
