@<TRIPOS>MOLECULE
*****
 123 128 0 0 0
SMALL
GASTEIGER

@<TRIPOS>ATOM
     1 C         2.599904   -1.311062   -3.838352 C.3        1 UNL1     0.0009
     2 C         4.405775   -1.22365   -4.248506 C.2        1 UNL1     -0.0787
     3 C         5.485578   -0.704027   -5.060949 C.2        1 UNL1     -0.0649
     4 C         7.14967   -0.934181   -4.850748 C.2        1 UNL1     -0.0542
     5 C         8.439043   -0.436347   -5.161807 C.2        1 UNL1     0.0115
     6 C         9.21479   0.576976   -6.047649 C.3        1 UNL1     -0.0348
     7 C         9.688224   -0.902258   -4.26768 C.2        1 UNL1     0.2441
     8 O         10.490184   -1.749848   -4.63507 O.2        1 UNL1     -0.2702
     9 N         9.949253   -0.088998   -3.151156 N.am        1 UNL1     -0.2772
     10 C         9.221067   -0.516676   -2.064805 C.2        1 UNL1     0.1049
     11 C         7.971665   -0.09379   -1.99859 C.2        1 UNL1     0.0801
     12 C         8.63912   -2.562174   -0.747759 C.ar        1 UNL1     0.0753
     13 C         7.270697   -2.165664   -0.884892 C.ar        1 UNL1     0.0305
     14 C         6.90365   -0.84921   -1.401881 C.2        1 UNL1     0.0924
     15 N         7.343621   0.859492   -2.708054 N.pl3        1 UNL1     -0.3170
     16 C         6.040058   1.050613   -2.129735 C.3        1 UNL1     0.1275
     17 N         5.7053   -0.281367   -1.504043 N.2        1 UNL1     -0.2557
     18 C         6.197943   2.033758   -0.973793 C.3        1 UNL1     0.0016
     19 C         6.843196   3.305283   -1.501489 C.3        1 UNL1     0.0026
     20 N         5.99654   3.859587   -2.548843 N.3        1 UNL1     -0.3018
     21 C         5.735803   2.96315   -3.677021 C.3        1 UNL1     0.0026
     22 C         5.083486   1.694593   -3.124626 C.3        1 UNL1     0.0016
     23 C         6.359528   5.215838   -2.908657 C.3        1 UNL1     0.0012
     24 C         7.453863   5.212291   -3.987626 C.3        1 UNL1     -0.0339
     25 C         8.419644   6.395852   -3.812967 C.3        1 UNL1     -0.0615
     26 C         8.190145   3.883916   -3.97825 C.3        1 UNL1     -0.0615
     27 C         8.983847   -3.768585   -0.1429 C.ar        1 UNL1     0.1347
     28 C         8.053772   -4.639235   0.396527 C.ar        1 UNL1     0.0342
     29 C         6.710449   -4.251312   0.206363 C.ar        1 UNL1     0.1435
     30 C         6.348786   -3.063102   -0.429701 C.ar        1 UNL1     0.0774
     31 O         5.692245   -4.937453   0.769814 O.3        1 UNL1     -0.4436
     32 C         4.588987   -4.018942   0.764152 C.3        1 UNL1     0.3143
     33 C         4.904081   -3.028117   -0.338206 C.2        1 UNL1     0.2504
     34 C         8.357608   -5.819558   1.276652 C.3        1 UNL1     -0.0327
     35 O         3.428427   -4.749727   0.349055 O.2        1 UNL1     -0.4528
     36 C         0.479822   -3.078027   2.057633 C.3        1 UNL1     0.0854
     37 C         0.00764   -1.574909   1.985512 C.3        1 UNL1     0.0236
     38 C         -1.516827   -1.366324   1.533588 C.3        1 UNL1     0.1131
     39 C         -2.052044   -2.076306   0.225253 C.3        1 UNL1     0.0200
     40 C         -1.129627   -2.09315   -1.164459 C.3        1 UNL1     0.0661
     41 C         -0.387022   -0.746541   -1.880555 C.3        1 UNL1     0.0091
     42 C         1.176745   -0.615078   -2.830689 C.3        1 UNL1     0.0661
     43 C         9.683175   -1.605019   -1.19055 C.2        1 UNL1     0.2131
     44 O         10.832766   -1.630096   -0.789867 O.2        1 UNL1     -0.2851
     45 O         10.336034   -4.100645   -0.090319 O.3        1 UNL1     -0.5056
     46 O         4.134665   -2.373837   -1.005867 O.2        1 UNL1     -0.2836
     47 C         1.849981   -2.175887   -4.887006 C.3        1 UNL1     -0.0566
     48 O         0.577954   0.187828   -3.924264 O.3        1 UNL1     -0.3909
     49 C         -0.402328   0.400688   -0.895098 C.3        1 UNL1     -0.0577
     50 O         -0.239748   -3.191254   -1.162034 O.3        1 UNL1     -0.3910
     51 O         -0.426749   -4.033349   1.554721 O.3        1 UNL1     -0.3753
     52 C         1.154429   -0.627269   1.504055 C.3        1 UNL1     -0.0564
     53 O         -2.04095   0.01309   1.807153 O.3        1 UNL1     -0.4608
     54 C         -3.113895   0.594185   1.183416 C.2        1 UNL1     0.3042
     55 O         -3.376207   0.58093   -0.018605 O.2        1 UNL1     -0.2512
     56 C         -4.071549   1.260232   2.129986 C.3        1 UNL1     0.0332
     57 C         -2.753612   -3.442882   0.670729 C.3        1 UNL1     -0.0567
     58 C         4.626495   -3.281866   2.123137 C.3        1 UNL1     0.0210
     59 C         -0.218533   -5.36377   2.026412 C.3        1 UNL1     0.0372
     60 C         1.794657   -3.355519   1.417815 C.2        1 UNL1     -0.0208
     61 C         2.169722   -4.346053   0.607313 C.2        1 UNL1     0.0882
     62 H         2.84204   -1.975586   -3.000205 H        1 UNL1     0.0365
     63 H         4.809768   -1.955582   -3.545986 H        1 UNL1     0.0576
     64 H         5.311346   0.05431   -5.827549 H        1 UNL1     0.0615
     65 H         7.210376   -1.756467   -4.132665 H        1 UNL1     0.0622
     66 H         0.619765   -3.272215   3.130365 H        1 UNL1     0.0645
     67 H         -0.030706   -1.254998   3.041328 H        1 UNL1     0.0362
     68 H         -2.026844   -1.870488   2.368587 H        1 UNL1     0.0741
     69 H         -2.956376   -1.577199   -0.096436 H        1 UNL1     0.0359
     70 H         -1.905302   -2.367353   -1.904865 H        1 UNL1     0.0600
     71 H         -1.184176   -0.43811   -2.585093 H        1 UNL1     0.0348
     72 H         0.89475   -1.677687   -2.85632 H        1 UNL1     0.0602
     73 H         2.518881   -2.680176   1.800777 H        1 UNL1     0.0628
     74 H         1.482607   -5.043416   0.126903 H        1 UNL1     0.1022
     75 H         8.532735   1.043451   -6.798805 H        1 UNL1     0.0279
     76 H         9.632899   1.443759   -5.540754 H        1 UNL1     0.0279
     77 H         9.955845   0.091692   -6.699597 H        1 UNL1     0.0279
     78 H         9.666836   0.868143   -3.351652 H        1 UNL1     0.1553
     79 H         7.821185   1.577273   -3.221528 H        1 UNL1     0.1484
     80 H         5.211571   2.235818   -0.539042 H        1 UNL1     0.0317
     81 H         6.81046   1.602877   -0.174533 H        1 UNL1     0.0317
     82 H         7.862233   3.121064   -1.872351 H        1 UNL1     0.0428
     83 H         6.948089   3.991676   -0.660708 H        1 UNL1     0.0428
     84 H         5.034054   3.373181   -4.409984 H        1 UNL1     0.0428
     85 H         6.645563   2.765063   -4.260471 H        1 UNL1     0.0428
     86 H         4.787291   1.123221   -3.984736 H        1 UNL1     0.0317
     87 H         4.129321   1.942734   -2.643906 H        1 UNL1     0.0317
     88 H         5.468535   5.711167   -3.31618 H        1 UNL1     0.0429
     89 H         6.673237   5.791553   -2.028366 H        1 UNL1     0.0429
     90 H         6.984391   5.287561   -4.975626 H        1 UNL1     0.0308
     91 H         8.729465   6.505722   -2.769396 H        1 UNL1     0.0233
     92 H         9.305993   6.266737   -4.438526 H        1 UNL1     0.0233
     93 H         7.969695   7.349868   -4.113356 H        1 UNL1     0.0233
     94 H         9.178146   3.99645   -4.437625 H        1 UNL1     0.0233
     95 H         8.333749   3.543578   -2.948925 H        1 UNL1     0.0233
     96 H         7.63795   3.117706   -4.529585 H        1 UNL1     0.0233
     97 H         8.836975   -6.624533   0.727605 H        1 UNL1     0.0280
     98 H         9.04517   -5.561231   2.092607 H        1 UNL1     0.0280
     99 H         7.421328   -6.206985   1.710675 H        1 UNL1     0.0280
     100 H         10.790752   -3.772191   0.665307 H        1 UNL1     0.2922
     101 H         1.741736   -1.615946   -5.815664 H        1 UNL1     0.0236
     102 H         0.895344   -2.5563   -4.525154 H        1 UNL1     0.0236
     103 H         2.42275   -3.075497   -5.167776 H        1 UNL1     0.0236
     104 H         0.233678   -0.435588   -4.593439 H        1 UNL1     0.2098
     105 H         0.211468   1.249864   -1.184867 H        1 UNL1     0.0234
     106 H         -1.397114   0.736086   -0.602122 H        1 UNL1     0.0234
     107 H         0.0   0.0   0.0 H        1 UNL1     0.0234
     108 H         0.33042   -3.100859   -0.374311 H        1 UNL1     0.2098
     109 H         1.527013   -0.898634   0.506431 H        1 UNL1     0.0234
     110 H         0.871198   0.430759   1.514113 H        1 UNL1     0.0234
     111 H         2.026089   -0.675846   2.170234 H        1 UNL1     0.0234
     112 H         -4.781077   0.52443   2.520515 H        1 UNL1     0.0342
     113 H         -3.556019   1.774043   2.939968 H        1 UNL1     0.0342
     114 H         -4.641802   2.012718   1.568079 H        1 UNL1     0.0342
     115 H         -3.503618   -3.279572   1.456865 H        1 UNL1     0.0234
     116 H         -3.244403   -3.976598   -0.145555 H        1 UNL1     0.0234
     117 H         -2.067548   -4.146064   1.173514 H        1 UNL1     0.0234
     118 H         4.3395   -2.220079   2.026965 H        1 UNL1     0.0309
     119 H         3.999552   -3.754665   2.885768 H        1 UNL1     0.0309
     120 H         5.635362   -3.233375   2.547333 H        1 UNL1     0.0309
     121 H         0.165599   -5.952439   1.193785 H        1 UNL1     0.0524
     122 H         0.528036   -5.408307   2.836776 H        1 UNL1     0.0524
     123 H         -1.153133   -5.786191   2.38443 H        1 UNL1     0.0524
@<TRIPOS>BOND
     1     1     2    1
     2     1    42    1
     3     2     3    2
     4     3     4    1
     5     4     5    2
     6     5     7    1
     7     6    75    1
     8     6    76    1
     9     6    77    1
    10     7     9   am
    11     9    10    1
    12    10    11    2
    13    10    43    1
    14    11    14    1
    15    11    15    1
    16    12    13   ar
    17    12    27   ar
    18    12    43    1
    19    13    14    1
    20    13    30   ar
    21    14    17    2
    22    15    16    1
    23    16    17    1
    24    16    18    1
    25    16    22    1
    26    18    19    1
    27    19    20    1
    28    20    21    1
    29    21    22    1
    30    23    24    1
    31    23    88    1
    32    23    89    1
    33    24    25    1
    34    24    26    1
    35    24    90    1
    36    25    91    1
    37    25    92    1
    38    25    93    1
    39    26    94    1
    40    26    95    1
    41    26    96    1
    42    27    28   ar
    43    28    29   ar
    44    29    30   ar
    45    29    31    1
    46    30    33    1
    47    31    32    1
    48    32    33    1
    49    32    35    1
    50    34    97    1
    51    34    98    1
    52    34    99    1
    53    35    61    1
    54    36    37    1
    55    36    60    1
    56    37    38    1
    57    38    39    1
    58    39    40    1
    59    40    41    1
    60    41    42    1
    61    45   100    1
    62    47   101    1
    63    47   102    1
    64    47   103    1
    65    48   104    1
    66    49   105    1
    67    49   106    1
    68    49   107    1
    69    50   108    1
    70    51    59    1
    71    52   109    1
    72    52   110    1
    73    52   111    1
    74    53    54    1
    75    54    55    2
    76    54    56    1
    77    56   112    1
    78    56   113    1
    79    56   114    1
    80    57   115    1
    81    57   116    1
    82    57   117    1
    83    58   118    1
    84    58   119    1
    85    58   120    1
    86    59   121    1
    87    59   122    1
    88    59   123    1
    89    60    61    2
    90     1    47    1
    91     1    62    1
    92     2    63    1
    93     3    64    1
    94     4    65    1
    95     5     6    1
    96     7     8    2
    97     9    78    1
    98    15    79    1
    99    18    80    1
   100    18    81    1
   101    19    82    1
   102    19    83    1
   103    20    23    1
   104    21    84    1
   105    21    85    1
   106    22    86    1
   107    22    87    1
   108    27    45    1
   109    28    34    1
   110    32    58    1
   111    33    46    2
   112    36    51    1
   113    36    66    1
   114    37    52    1
   115    37    67    1
   116    38    53    1
   117    38    68    1
   118    42    48    1
   119    42    72    1
   120    43    44    2
   121    60    73    1
   122    61    74    1
   123    39    69    1
   124    39    57    1
   125    40    70    1
   126    40    50    1
   127    41    71    1
   128    41    49    1
