@<TRIPOS>MOLECULE
*****
 123 128 0 0 0
SMALL
GASTEIGER

@<TRIPOS>ATOM
     1 C         0.284005   0.019527   4.117444 C.3        1 UNL1     0.0009
     2 C         -0.901595   -0.7208   5.335354 C.2        1 UNL1     -0.0787
     3 C         -2.016753   -0.57936   6.247749 C.2        1 UNL1     -0.0649
     4 C         -2.826208   -1.798846   7.098628 C.2        1 UNL1     -0.0542
     5 C         -4.019794   -2.143299   7.779644 C.2        1 UNL1     0.0115
     6 C         -5.348056   -1.576683   8.352347 C.3        1 UNL1     -0.0348
     7 C         -4.349196   -3.693674   8.034242 C.2        1 UNL1     0.2441
     8 O         -4.182819   -4.240395   9.11588 O.2        1 UNL1     -0.2702
     9 N         -5.084329   -4.315519   7.010016 N.am        1 UNL1     -0.2772
     10 C         -4.237775   -4.82129   6.050399 C.2        1 UNL1     0.1049
     11 C         -3.81495   -3.965425   5.137745 C.2        1 UNL1     0.0801
     12 C         -2.179945   -6.212431   5.754769 C.ar        1 UNL1     0.0753
     13 C         -1.67678   -5.153301   4.93399 C.ar        1 UNL1     0.0305
     14 C         -2.532841   -4.054322   4.49302 C.2        1 UNL1     0.0924
     15 N         -4.236639   -2.719674   4.860598 N.pl3        1 UNL1     -0.3170
     16 C         -3.565433   -2.284455   3.664638 C.3        1 UNL1     0.1275
     17 N         -2.266393   -3.052695   3.659548 N.2        1 UNL1     -0.2557
     18 C         -4.370812   -2.806511   2.478668 C.3        1 UNL1     0.0016
     19 C         -5.803353   -2.314174   2.609133 C.3        1 UNL1     0.0026
     20 N         -5.796774   -0.858095   2.637752 N.3        1 UNL1     -0.3018
     21 C         -4.996447   -0.260916   3.708837 C.3        1 UNL1     0.0026
     22 C         -3.560477   -0.765353   3.555774 C.3        1 UNL1     0.0016
     23 C         -7.115788   -0.284573   2.459096 C.3        1 UNL1     0.0012
     24 C         -7.602631   -0.492515   1.016355 C.3        1 UNL1     -0.0339
     25 C         -8.563648   -1.688349   0.913973 C.3        1 UNL1     -0.0615
     26 C         -8.239626   0.782963   0.492739 C.3        1 UNL1     -0.0615
     27 C         -1.392425   -7.31698   6.07084 C.ar        1 UNL1     0.1347
     28 C         -0.105616   -7.492066   5.593853 C.ar        1 UNL1     0.0342
     29 C         0.385946   -6.413681   4.827943 C.ar        1 UNL1     0.1435
     30 C         -0.378801   -5.284289   4.53323 C.ar        1 UNL1     0.0774
     31 O         1.580874   -6.481209   4.20137 O.3        1 UNL1     -0.4436
     32 C         1.517198   -5.465778   3.188592 C.3        1 UNL1     0.3143
     33 C         0.471761   -4.483763   3.677387 C.2        1 UNL1     0.2504
     34 C         0.70282   -8.756513   5.681628 C.3        1 UNL1     -0.0327
     35 O         2.773367   -4.776415   3.196983 O.2        1 UNL1     -0.4528
     36 C         3.33151   -3.58703   -0.364186 C.3        1 UNL1     0.0854
     37 C         2.418027   -2.666615   -1.261909 C.3        1 UNL1     0.0236
     38 C         3.145396   -1.367306   -1.857286 C.3        1 UNL1     0.1131
     39 C         3.9523   -0.407901   -0.892548 C.3        1 UNL1     0.0200
     40 C         3.322932   0.022637   0.591019 C.3        1 UNL1     0.0661
     41 C         1.76033   0.620096   0.871962 C.3        1 UNL1     0.0091
     42 C         0.652749   0.420827   2.32074 C.3        1 UNL1     0.0661
     43 C         -3.598393   -6.138679   6.184682 C.2        1 UNL1     0.2131
     44 O         -4.248263   -7.108735   6.530221 O.2        1 UNL1     -0.2851
     45 O         -1.942195   -8.28152   6.912774 O.3        1 UNL1     -0.5056
     46 O         0.375615   -3.301823   3.433199 O.2        1 UNL1     -0.2836
     47 C         1.359621   0.861286   4.855329 C.3        1 UNL1     -0.0566
     48 O         0.309228   1.861255   2.399965 O.3        1 UNL1     -0.3909
     49 C         0.91871   0.384955   -0.362493 C.3        1 UNL1     -0.0577
     50 O         3.658001   -0.935415   1.574679 O.3        1 UNL1     -0.3910
     51 O         4.607246   -3.073691   -0.053682 O.3        1 UNL1     -0.3753
     52 C         0.942698   -2.629858   -0.745185 C.3        1 UNL1     -0.0564
     53 O         2.382853   -0.708895   -2.969647 O.3        1 UNL1     -0.4608
     54 C         2.554796   0.582009   -3.396183 C.2        1 UNL1     0.3042
     55 O         1.765908   1.51883   -3.278457 O.2        1 UNL1     -0.2512
     56 C         3.897537   0.835345   -4.020347 C.3        1 UNL1     0.0332
     57 C         5.489321   -0.846419   -0.951226 C.3        1 UNL1     -0.0567
     58 C         0.992545   -6.156981   1.90855 C.3        1 UNL1     0.0210
     59 C         5.602927   -4.061228   0.209481 C.3        1 UNL1     0.0372
     60 C         2.718334   -4.019467   0.921183 C.2        1 UNL1     -0.0208
     61 C         3.228896   -4.058152   2.152676 C.2        1 UNL1     0.0882
     62 H         0.717307   -0.976041   3.963152 H        1 UNL1     0.0365
     63 H         -0.520858   -1.742551   5.394808 H        1 UNL1     0.0576
     64 H         -2.561209   0.362606   6.344577 H        1 UNL1     0.0615
     65 H         -2.165348   -2.66483   7.004719 H        1 UNL1     0.0622
     66 H         3.467283   -4.502912   -0.956447 H        1 UNL1     0.0645
     67 H         2.25199   -3.263269   -2.17569 H        1 UNL1     0.0362
     68 H         3.905459   -1.854346   -2.487063 H        1 UNL1     0.0741
     69 H         4.082238   0.548349   -1.381535 H        1 UNL1     0.0359
     70 H         3.963805   0.89437   0.82431 H        1 UNL1     0.0600
     71 H         1.95346   1.70836   0.798902 H        1 UNL1     0.0348
     72 H         1.665805   0.187096   2.679076 H        1 UNL1     0.0602
     73 H         1.767824   -4.450838   0.727026 H        1 UNL1     0.0628
     74 H         4.168489   -3.588541   2.44571 H        1 UNL1     0.1022
     75 H         -5.431182   -0.483286   8.141144 H        1 UNL1     0.0279
     76 H         -6.267571   -1.968678   7.923509 H        1 UNL1     0.0279
     77 H         -5.376155   -1.587866   9.451795 H        1 UNL1     0.0279
     78 H         -5.686549   -3.631101   6.557267 H        1 UNL1     0.1553
     79 H         -5.127036   -2.356383   5.147209 H        1 UNL1     0.1484
     80 H         -3.908745   -2.452585   1.549154 H        1 UNL1     0.0317
     81 H         -4.349284   -3.900986   2.442454 H        1 UNL1     0.0317
     82 H         -6.295397   -2.725417   3.502825 H        1 UNL1     0.0428
     83 H         -6.360337   -2.699325   1.754453 H        1 UNL1     0.0428
     84 H         -4.943424   0.831154   3.660028 H        1 UNL1     0.0428
     85 H         -5.424542   -0.463196   4.700368 H        1 UNL1     0.0428
     86 H         -2.980507   -0.208587   4.268259 H        1 UNL1     0.0317
     87 H         -3.151648   -0.444721   2.589777 H        1 UNL1     0.0317
     88 H         -7.807096   -0.799625   3.138882 H        1 UNL1     0.0429
     89 H         -7.128687   0.778496   2.732028 H        1 UNL1     0.0429
     90 H         -6.738067   -0.682965   0.369461 H        1 UNL1     0.0308
     91 H         -9.424911   -1.564375   1.577267 H        1 UNL1     0.0233
     92 H         -8.916515   -1.813578   -0.112385 H        1 UNL1     0.0233
     93 H         -8.083324   -2.634936   1.189831 H        1 UNL1     0.0233
     94 H         -8.771162   0.582761   -0.443864 H        1 UNL1     0.0233
     95 H         -8.965068   1.163091   1.217445 H        1 UNL1     0.0233
     96 H         -7.489175   1.556149   0.305723 H        1 UNL1     0.0233
     97 H         1.667163   -8.658375   5.192097 H        1 UNL1     0.0280
     98 H         0.920305   -9.037376   6.720412 H        1 UNL1     0.0280
     99 H         0.152503   -9.580649   5.198878 H        1 UNL1     0.0280
     100 H         -1.913587   -9.159064   6.574068 H        1 UNL1     0.2922
     101 H         2.082434   1.246095   4.13622 H        1 UNL1     0.0236
     102 H         1.841031   0.32209   5.670495 H        1 UNL1     0.0236
     103 H         0.929623   1.76002   5.328165 H        1 UNL1     0.0236
     104 H         0.920787   2.275574   3.039736 H        1 UNL1     0.2098
     105 H         0.70043   1.28297   -0.934973 H        1 UNL1     0.0234
     106 H         1.285585   -0.402668   -1.020506 H        1 UNL1     0.0234
     107 H         0.0   -0.0   0.0 H        1 UNL1     0.0234
     108 H         3.205963   -1.767338   1.335233 H        1 UNL1     0.2098
     109 H         0.872981   -2.263154   0.28844 H        1 UNL1     0.0234
     110 H         0.276173   -2.04424   -1.387478 H        1 UNL1     0.0234
     111 H         0.49189   -3.631177   -0.73637 H        1 UNL1     0.0234
     112 H         3.977184   1.885122   -4.318628 H        1 UNL1     0.0342
     113 H         4.716015   0.55375   -3.359558 H        1 UNL1     0.0342
     114 H         3.975636   0.220591   -4.927619 H        1 UNL1     0.0342
     115 H         5.890428   -0.793424   -1.972741 H        1 UNL1     0.0234
     116 H         6.144823   -0.253885   -0.309922 H        1 UNL1     0.0234
     117 H         5.652256   -1.911685   -0.713313 H        1 UNL1     0.0234
     118 H         1.799182   -6.664529   1.351113 H        1 UNL1     0.0309
     119 H         0.18819   -6.872765   2.1057 H        1 UNL1     0.0309
     120 H         0.591967   -5.443834   1.179808 H        1 UNL1     0.0309
     121 H         5.302276   -4.601628   1.106662 H        1 UNL1     0.0524
     122 H         5.689118   -4.796581   -0.607749 H        1 UNL1     0.0524
     123 H         6.5693   -3.589177   0.362404 H        1 UNL1     0.0524
@<TRIPOS>BOND
     1     1     2    1
     2     1    42    1
     3     2     3    2
     4     3     4    1
     5     4     5    2
     6     5     7    1
     7     6    75    1
     8     6    76    1
     9     6    77    1
    10     7     9   am
    11     9    10    1
    12    10    11    2
    13    10    43    1
    14    11    14    1
    15    11    15    1
    16    12    13   ar
    17    12    27   ar
    18    12    43    1
    19    13    14    1
    20    13    30   ar
    21    14    17    2
    22    15    16    1
    23    16    17    1
    24    16    18    1
    25    16    22    1
    26    18    19    1
    27    19    20    1
    28    20    21    1
    29    21    22    1
    30    23    24    1
    31    23    88    1
    32    23    89    1
    33    24    25    1
    34    24    26    1
    35    24    90    1
    36    25    91    1
    37    25    92    1
    38    25    93    1
    39    26    94    1
    40    26    95    1
    41    26    96    1
    42    27    28   ar
    43    28    29   ar
    44    29    30   ar
    45    29    31    1
    46    30    33    1
    47    31    32    1
    48    32    33    1
    49    32    35    1
    50    34    97    1
    51    34    98    1
    52    34    99    1
    53    35    61    1
    54    36    37    1
    55    36    60    1
    56    37    38    1
    57    38    39    1
    58    39    40    1
    59    40    41    1
    60    41    42    1
    61    45   100    1
    62    47   101    1
    63    47   102    1
    64    47   103    1
    65    48   104    1
    66    49   105    1
    67    49   106    1
    68    49   107    1
    69    50   108    1
    70    51    59    1
    71    52   109    1
    72    52   110    1
    73    52   111    1
    74    53    54    1
    75    54    55    2
    76    54    56    1
    77    56   112    1
    78    56   113    1
    79    56   114    1
    80    57   115    1
    81    57   116    1
    82    57   117    1
    83    58   118    1
    84    58   119    1
    85    58   120    1
    86    59   121    1
    87    59   122    1
    88    59   123    1
    89    60    61    2
    90     1    47    1
    91     1    62    1
    92     2    63    1
    93     3    64    1
    94     4    65    1
    95     5     6    1
    96     7     8    2
    97     9    78    1
    98    15    79    1
    99    18    80    1
   100    18    81    1
   101    19    82    1
   102    19    83    1
   103    20    23    1
   104    21    84    1
   105    21    85    1
   106    22    86    1
   107    22    87    1
   108    27    45    1
   109    28    34    1
   110    32    58    1
   111    33    46    2
   112    36    51    1
   113    36    66    1
   114    37    52    1
   115    37    67    1
   116    38    53    1
   117    38    68    1
   118    42    48    1
   119    42    72    1
   120    43    44    2
   121    60    73    1
   122    61    74    1
   123    39    69    1
   124    39    57    1
   125    40    70    1
   126    40    50    1
   127    41    71    1
   128    41    49    1
