@<TRIPOS>MOLECULE
*****
 123 128 0 0 0
SMALL
GASTEIGER

@<TRIPOS>ATOM
     1 C         5.16796   1.74408   0.499958 C.3        1 UNL1     0.0009
     2 C         6.60656   2.549465   -0.347878 C.2        1 UNL1     -0.0787
     3 C         7.8894   2.450596   -1.011648 C.2        1 UNL1     -0.0649
     4 C         8.768927   3.685369   -1.765389 C.2        1 UNL1     -0.0542
     5 C         9.790626   3.97763   -2.702295 C.2        1 UNL1     0.0115
     6 C         10.919711   3.351693   -3.56641 C.3        1 UNL1     -0.0348
     7 C         9.887996   5.46105   -3.308076 C.2        1 UNL1     0.2441
     8 O         10.711892   6.281947   -2.928802 O.2        1 UNL1     -0.2702
     9 N         9.139748   5.669021   -4.479837 N.am        1 UNL1     -0.2772
     10 C         7.85683   6.056521   -4.167928 C.2        1 UNL1     0.1049
     11 C         7.009879   5.085616   -3.877687 C.2        1 UNL1     0.0801
     12 C         6.557423   7.663578   -2.758588 C.ar        1 UNL1     0.0753
     13 C         5.796843   6.536047   -2.312717 C.ar        1 UNL1     0.0305
     14 C         5.913821   5.23051   -2.958427 C.2        1 UNL1     0.0924
     15 N         7.131773   3.75661   -4.0371 N.pl3        1 UNL1     -0.3170
     16 C         5.860987   3.15825   -3.725132 C.3        1 UNL1     0.1275
     17 N         5.223764   4.113572   -2.745832 N.2        1 UNL1     -0.2557
     18 C         5.01015   3.218434   -4.990104 C.3        1 UNL1     0.0016
     19 C         5.766284   2.534225   -6.117805 C.3        1 UNL1     0.0026
     20 N         6.034815   1.155776   -5.73206 N.3        1 UNL1     -0.3018
     21 C         6.796125   0.994343   -4.491611 C.3        1 UNL1     0.0026
     22 C         6.016143   1.685002   -3.37156 C.3        1 UNL1     0.0016
     23 C         6.480446   0.336341   -6.841376 C.3        1 UNL1     0.0012
     24 C         5.32523   0.084454   -7.823102 C.3        1 UNL1     -0.0339
     25 C         5.343846   1.092473   -8.983967 C.3        1 UNL1     -0.0615
     26 C         5.37197   -1.347986   -8.325804 C.3        1 UNL1     -0.0615
     27 C         6.352853   8.931214   -2.218801 C.ar        1 UNL1     0.1347
     28 C         5.392501   9.201096   -1.260188 C.ar        1 UNL1     0.0342
     29 C         4.689393   8.066984   -0.801285 C.ar        1 UNL1     0.1435
     30 C         4.908681   6.78499   -1.306879 C.ar        1 UNL1     0.0774
     31 O         3.64716   8.180986   0.050631 O.3        1 UNL1     -0.4436
     32 C         2.9248   6.948751   -0.093123 C.3        1 UNL1     0.3143
     33 C         3.938194   5.955106   -0.624081 C.2        1 UNL1     0.2504
     34 C         4.94598   10.567358   -0.819682 C.3        1 UNL1     -0.0327
     35 O         2.561802   6.511813   1.222388 O.2        1 UNL1     -0.4528
     36 C         -0.682041   4.582158   0.819889 C.3        1 UNL1     0.0854
     37 C         -0.98688   3.32214   -0.078414 C.3        1 UNL1     0.0236
     38 C         -1.58958   2.061238   0.708112 C.3        1 UNL1     0.1131
     39 C         -0.866228   1.529278   2.010436 C.3        1 UNL1     0.0200
     40 C         0.794792   1.382498   2.05412 C.3        1 UNL1     0.0661
     41 C         1.755405   0.613406   0.886502 C.3        1 UNL1     0.0091
     42 C         3.464128   0.974922   0.325278 C.3        1 UNL1     0.0661
     43 C         7.509046   7.455602   -3.87815 C.2        1 UNL1     0.2131
     44 O         7.910699   8.353657   -4.595722 O.2        1 UNL1     -0.2851
     45 O         7.166587   9.965897   -2.675643 O.3        1 UNL1     -0.5056
     46 O         3.953097   4.751511   -0.493733 O.2        1 UNL1     -0.2836
     47 C         5.561783   1.313773   1.93861 C.3        1 UNL1     -0.0566
     48 O         3.911529   -0.436543   0.407227 O.3        1 UNL1     -0.3909
     49 C         0.922965   0.381893   -0.354843 C.3        1 UNL1     -0.0577
     50 O         1.395277   2.599772   2.448309 O.3        1 UNL1     -0.3910
     51 O         -0.808418   4.392056   2.211047 O.3        1 UNL1     -0.3753
     52 C         0.059236   3.161331   -1.229384 C.3        1 UNL1     -0.0564
     53 O         -2.191555   1.023033   -0.193045 O.3        1 UNL1     -0.4608
     54 C         -2.415342   -0.286918   0.141435 C.2        1 UNL1     0.3042
     55 O         -1.843212   -1.28016   -0.305752 O.2        1 UNL1     -0.2512
     56 C         -3.446515   -0.464671   1.219303 C.3        1 UNL1     0.0332
     57 C         -1.58871   2.198333   3.270816 C.3        1 UNL1     -0.0567
     58 C         1.851461   7.195035   -1.178856 C.3        1 UNL1     0.0210
     59 C         -1.160514   5.562971   2.946474 C.3        1 UNL1     0.0372
     60 C         0.647772   5.210349   0.591558 C.2        1 UNL1     -0.0208
     61 C         1.559685   5.644588   1.462532 C.2        1 UNL1     0.0882
     62 H         4.692631   2.728571   0.586856 H        1 UNL1     0.0365
     63 H         6.340926   3.603421   -0.242594 H        1 UNL1     0.0576
     64 H         8.346682   1.483491   -1.232348 H        1 UNL1     0.0615
     65 H         8.281985   4.600996   -1.418984 H        1 UNL1     0.0622
     66 H         -1.425662   5.329349   0.508795 H        1 UNL1     0.0645
     67 H         -1.851257   3.632368   -0.690926 H        1 UNL1     0.0362
     68 H         -2.536869   2.498683   1.058551 H        1 UNL1     0.0741
     69 H         -1.198796   0.518353   2.204955 H        1 UNL1     0.0359
     70 H         0.904724   0.721762   2.935257 H        1 UNL1     0.0600
     71 H         1.797577   -0.407948   1.313135 H        1 UNL1     0.0348
     72 H         3.357099   1.462847   1.304967 H        1 UNL1     0.0602
     73 H         0.767408   5.40789   -0.44474 H        1 UNL1     0.0628
     74 H         1.540338   5.433546   2.532263 H        1 UNL1     0.1022
     75 H         10.963142   2.246326   -3.413729 H        1 UNL1     0.0279
     76 H         10.807799   3.43496   -4.645118 H        1 UNL1     0.0279
     77 H         11.924507   3.655536   -3.238133 H        1 UNL1     0.0279
     78 H         9.077913   4.799309   -5.005057 H        1 UNL1     0.1553
     79 H         7.797676   3.328353   -4.653625 H        1 UNL1     0.1484
     80 H         4.048209   2.72814   -4.797626 H        1 UNL1     0.0317
     81 H         4.784723   4.255453   -5.261077 H        1 UNL1     0.0317
     82 H         6.697719   3.064929   -6.364167 H        1 UNL1     0.0428
     83 H         5.142544   2.590154   -7.010481 H        1 UNL1     0.0428
     84 H         6.9152   -0.048809   -4.182637 H        1 UNL1     0.0428
     85 H         7.826648   1.361653   -4.593712 H        1 UNL1     0.0428
     86 H         6.530986   1.433928   -2.462776 H        1 UNL1     0.0317
     87 H         5.036155   1.208043   -3.248149 H        1 UNL1     0.0317
     88 H         7.275532   0.879113   -7.369138 H        1 UNL1     0.0429
     89 H         6.914633   -0.60853   -6.489988 H        1 UNL1     0.0429
     90 H         4.372437   0.183745   -7.289678 H        1 UNL1     0.0308
     91 H         6.292341   1.055004   -9.528077 H        1 UNL1     0.0233
     92 H         4.523812   0.896638   -9.678807 H        1 UNL1     0.0233
     93 H         5.214178   2.126271   -8.641502 H        1 UNL1     0.0233
     94 H         4.675407   -1.478048   -9.1611 H        1 UNL1     0.0233
     95 H         6.377244   -1.58526   -8.685091 H        1 UNL1     0.0233
     96 H         5.102452   -2.056511   -7.537565 H        1 UNL1     0.0233
     97 H         4.151469   10.517899   -0.081078 H        1 UNL1     0.0280
     98 H         5.758431   11.136634   -0.349462 H        1 UNL1     0.0280
     99 H         4.574055   11.132479   -1.689972 H        1 UNL1     0.0280
     100 H         6.700602   10.716706   -2.999319 H        1 UNL1     0.2922
     101 H         4.697876   0.880589   2.442269 H        1 UNL1     0.0236
     102 H         6.012267   2.118578   2.518555 H        1 UNL1     0.0236
     103 H         6.317442   0.510547   1.938383 H        1 UNL1     0.0236
     104 H         4.329628   -0.563153   1.281374 H        1 UNL1     0.2098
     105 H         0.712493   1.280976   -0.928571 H        1 UNL1     0.0234
     106 H         1.292361   -0.406676   -1.010307 H        1 UNL1     0.0234
     107 H         0.0   -0.0   0.0 H        1 UNL1     0.0234
     108 H         1.195882   3.25915   1.756045 H        1 UNL1     0.2098
     109 H         1.082631   3.040775   -0.847493 H        1 UNL1     0.0234
     110 H         -0.176066   2.338498   -1.912994 H        1 UNL1     0.0234
     111 H         0.086483   4.046918   -1.878181 H        1 UNL1     0.0234
     112 H         -3.574121   -1.528703   1.440434 H        1 UNL1     0.0342
     113 H         -3.19798   0.09452   2.120069 H        1 UNL1     0.0342
     114 H         -4.405211   -0.081461   0.843513 H        1 UNL1     0.0342
     115 H         -2.653147   1.93067   3.321003 H        1 UNL1     0.0234
     116 H         -1.138832   1.937117   4.230725 H        1 UNL1     0.0234
     117 H         -1.648277   3.298693   3.210813 H        1 UNL1     0.0234
     118 H         0.950113   7.682456   -0.767761 H        1 UNL1     0.0309
     119 H         2.222559   7.783047   -2.024273 H        1 UNL1     0.0309
     120 H         1.462858   6.263512   -1.604719 H        1 UNL1     0.0309
     121 H         -0.361311   6.290934   2.809723 H        1 UNL1     0.0524
     122 H         -2.093925   6.022044   2.580369 H        1 UNL1     0.0524
     123 H         -1.274387   5.324873   4.000247 H        1 UNL1     0.0524
@<TRIPOS>BOND
     1     1     2    1
     2     1    42    1
     3     2     3    2
     4     3     4    1
     5     4     5    2
     6     5     7    1
     7     6    75    1
     8     6    76    1
     9     6    77    1
    10     7     9   am
    11     9    10    1
    12    10    11    2
    13    10    43    1
    14    11    14    1
    15    11    15    1
    16    12    13   ar
    17    12    27   ar
    18    12    43    1
    19    13    14    1
    20    13    30   ar
    21    14    17    2
    22    15    16    1
    23    16    17    1
    24    16    18    1
    25    16    22    1
    26    18    19    1
    27    19    20    1
    28    20    21    1
    29    21    22    1
    30    23    24    1
    31    23    88    1
    32    23    89    1
    33    24    25    1
    34    24    26    1
    35    24    90    1
    36    25    91    1
    37    25    92    1
    38    25    93    1
    39    26    94    1
    40    26    95    1
    41    26    96    1
    42    27    28   ar
    43    28    29   ar
    44    29    30   ar
    45    29    31    1
    46    30    33    1
    47    31    32    1
    48    32    33    1
    49    32    35    1
    50    34    97    1
    51    34    98    1
    52    34    99    1
    53    35    61    1
    54    36    37    1
    55    36    60    1
    56    37    38    1
    57    38    39    1
    58    39    40    1
    59    40    41    1
    60    41    42    1
    61    45   100    1
    62    47   101    1
    63    47   102    1
    64    47   103    1
    65    48   104    1
    66    49   105    1
    67    49   106    1
    68    49   107    1
    69    50   108    1
    70    51    59    1
    71    52   109    1
    72    52   110    1
    73    52   111    1
    74    53    54    1
    75    54    55    2
    76    54    56    1
    77    56   112    1
    78    56   113    1
    79    56   114    1
    80    57   115    1
    81    57   116    1
    82    57   117    1
    83    58   118    1
    84    58   119    1
    85    58   120    1
    86    59   121    1
    87    59   122    1
    88    59   123    1
    89    60    61    2
    90     1    47    1
    91     1    62    1
    92     2    63    1
    93     3    64    1
    94     4    65    1
    95     5     6    1
    96     7     8    2
    97     9    78    1
    98    15    79    1
    99    18    80    1
   100    18    81    1
   101    19    82    1
   102    19    83    1
   103    20    23    1
   104    21    84    1
   105    21    85    1
   106    22    86    1
   107    22    87    1
   108    27    45    1
   109    28    34    1
   110    32    58    1
   111    33    46    2
   112    36    51    1
   113    36    66    1
   114    37    52    1
   115    37    67    1
   116    38    53    1
   117    38    68    1
   118    42    48    1
   119    42    72    1
   120    43    44    2
   121    60    73    1
   122    61    74    1
   123    39    69    1
   124    39    57    1
   125    40    70    1
   126    40    50    1
   127    41    71    1
   128    41    49    1
