@<TRIPOS>MOLECULE
*****
 123 128 0 0 0
SMALL
GASTEIGER

@<TRIPOS>ATOM
     1 C         1.75836   -1.973891   -4.798299 C.3        1 UNL1     0.0009
     2 C         1.772262   -1.746754   -6.638205 C.2        1 UNL1     -0.0787
     3 C         1.282171   -2.107002   -7.952008 C.2        1 UNL1     -0.0649
     4 C         1.638593   -1.369732   -9.433815 C.2        1 UNL1     -0.0542
     5 C         1.213817   -1.190677   -10.773436 C.2        1 UNL1     0.0115
     6 C         0.206766   -1.683243   -11.848866 C.3        1 UNL1     -0.0348
     7 C         1.816102   0.031233   -11.622657 C.2        1 UNL1     0.2441
     8 O         2.6943   -0.111001   -12.462337 O.2        1 UNL1     -0.2702
     9 N         1.089079   1.230506   -11.526041 N.am        1 UNL1     -0.2772
     10 C         1.527815   1.972978   -10.453862 C.2        1 UNL1     0.1049
     11 C         1.024166   1.649296   -9.276666 C.2        1 UNL1     0.0801
     12 C         3.601273   2.854818   -9.367371 C.ar        1 UNL1     0.0753
     13 C         3.103851   2.298254   -8.146135 C.ar        1 UNL1     0.0305
     14 C         1.73737   1.792543   -8.036426 C.2        1 UNL1     0.0924
     15 N         -0.009848   0.847031   -8.970537 N.pl3        1 UNL1     -0.3170
     16 C         -0.256664   0.967915   -7.55819 C.3        1 UNL1     0.1275
     17 N         1.0831   1.339199   -6.970904 N.2        1 UNL1     -0.2557
     18 C         -1.157715   2.182877   -7.359 C.3        1 UNL1     0.0016
     19 C         -2.410121   2.002975   -8.202033 C.3        1 UNL1     0.0026
     20 N         -3.081525   0.779044   -7.787019 N.3        1 UNL1     -0.3018
     21 C         -2.272322   -0.437565   -7.884087 C.3        1 UNL1     0.0026
     22 C         -1.021926   -0.236609   -7.026172 C.3        1 UNL1     0.0016
     23 C         -4.428061   0.668749   -8.311728 C.3        1 UNL1     0.0012
     24 C         -5.355222   1.69057   -7.634962 C.3        1 UNL1     -0.0339
     25 C         -5.971533   2.65631   -8.660419 C.3        1 UNL1     -0.0615
     26 C         -6.424694   0.971254   -6.831473 C.3        1 UNL1     -0.0615
     27 C         4.861725   3.444134   -9.431293 C.ar        1 UNL1     0.1347
     28 C         5.695892   3.570851   -8.334863 C.ar        1 UNL1     0.0342
     29 C         5.205676   2.97224   -7.154813 C.ar        1 UNL1     0.1435
     30 C         3.960367   2.346528   -7.084738 C.ar        1 UNL1     0.0774
     31 O         5.851394   3.106368   -5.975804 O.3        1 UNL1     -0.4436
     32 C         4.860067   2.802872   -4.982811 C.3        1 UNL1     0.3143
     33 C         3.831008   1.950833   -5.69785 C.2        1 UNL1     0.2504
     34 C         6.943532   4.40694   -8.268161 C.3        1 UNL1     -0.0327
     35 O         5.483549   1.967039   -4.000007 O.2        1 UNL1     -0.4528
     36 C         3.714199   2.713172   -0.725747 C.3        1 UNL1     0.0854
     37 C         2.1804   2.604467   -0.374799 C.3        1 UNL1     0.0236
     38 C         1.841062   1.685368   0.894788 C.3        1 UNL1     0.1131
     39 C         2.435136   0.222145   0.986033 C.3        1 UNL1     0.0200
     40 C         2.434902   -0.774727   -0.351384 C.3        1 UNL1     0.0661
     41 C         1.103499   -1.093021   -1.353216 C.3        1 UNL1     0.0091
     42 C         1.025425   -1.450593   -3.150839 C.3        1 UNL1     0.0661
     43 C         2.694445   2.863794   -10.542038 C.2        1 UNL1     0.2131
     44 O         2.822142   3.623429   -11.48511 O.2        1 UNL1     -0.2851
     45 O         5.288924   3.9209   -10.668885 O.3        1 UNL1     -0.5056
     46 O         3.087436   1.11709   -5.231131 O.2        1 UNL1     -0.2836
     47 C         2.506897   -3.277365   -4.410188 C.3        1 UNL1     -0.0566
     48 O         0.120876   -2.615425   -2.995685 O.3        1 UNL1     -0.3909
     49 C         0.01716   -0.083382   -1.056585 C.3        1 UNL1     -0.0577
     50 O         3.590155   -0.55982   -1.136831 O.3        1 UNL1     -0.3910
     51 O         4.57375   1.862514   -0.001189 O.3        1 UNL1     -0.3753
     52 C         1.287901   2.610838   -1.658681 C.3        1 UNL1     -0.0564
     53 O         0.446959   1.874158   1.417437 O.3        1 UNL1     -0.4608
     54 C         -0.35701   0.88195   1.914516 C.2        1 UNL1     0.3042
     55 O         -0.815393   0.792096   3.052782 O.2        1 UNL1     -0.2512
     56 C         -0.732489   -0.155287   0.894776 C.3        1 UNL1     0.0332
     57 C         3.773535   0.298555   1.8584 C.3        1 UNL1     -0.0567
     58 C         4.207559   4.148911   -4.590458 C.3        1 UNL1     0.0210
     59 C         5.386278   2.518404   0.971165 C.3        1 UNL1     0.0372
     60 C         4.044238   2.531585   -2.16563 C.2        1 UNL1     -0.0208
     61 C         5.00955   1.819046   -2.748044 C.2        1 UNL1     0.0882
     62 H         2.485604   -1.157646   -4.711284 H        1 UNL1     0.0365
     63 H         2.569943   -1.008847   -6.746222 H        1 UNL1     0.0576
     64 H         0.470347   -2.825987   -8.082812 H        1 UNL1     0.0615
     65 H         2.50344   -0.739348   -9.209899 H        1 UNL1     0.0622
     66 H         3.979597   3.752113   -0.484478 H        1 UNL1     0.0645
     67 H         1.920495   3.607876   0.004911 H        1 UNL1     0.0362
     68 H         2.356442   2.259018   1.680174 H        1 UNL1     0.0741
     69 H         1.856883   -0.344108   1.703939 H        1 UNL1     0.0359
     70 H         2.611361   -1.751328   0.13869 H        1 UNL1     0.0600
     71 H         0.700304   -1.997677   -0.857244 H        1 UNL1     0.0348
     72 H         2.062718   -1.652122   -2.846331 H        1 UNL1     0.0602
     73 H         3.443953   3.186642   -2.74684 H        1 UNL1     0.0628
     74 H         5.628669   1.083218   -2.233762 H        1 UNL1     0.1022
     75 H         0.187384   -2.799168   -11.885881 H        1 UNL1     0.0279
     76 H         -0.839441   -1.436146   -11.683143 H        1 UNL1     0.0279
     77 H         0.524289   -1.437842   -12.872906 H        1 UNL1     0.0279
     78 H         0.104681   1.02228   -11.37216 H        1 UNL1     0.1553
     79 H         -0.721532   0.581051   -9.626046 H        1 UNL1     0.1484
     80 H         -1.40185   2.276156   -6.293888 H        1 UNL1     0.0317
     81 H         -0.639825   3.105013   -7.643792 H        1 UNL1     0.0317
     82 H         -2.177785   1.982024   -9.276972 H        1 UNL1     0.0428
     83 H         -3.037607   2.88111   -8.046503 H        1 UNL1     0.0428
     84 H         -2.771762   -1.328997   -7.492015 H        1 UNL1     0.0428
     85 H         -2.046079   -0.695831   -8.927845 H        1 UNL1     0.0428
     86 H         -0.523333   -1.188049   -7.013735 H        1 UNL1     0.0317
     87 H         -1.307055   -0.085777   -5.977818 H        1 UNL1     0.0317
     88 H         -4.394344   0.886101   -9.387328 H        1 UNL1     0.0429
     89 H         -4.816463   -0.351964   -8.201898 H        1 UNL1     0.0429
     90 H         -4.777133   2.274466   -6.908951 H        1 UNL1     0.0308
     91 H         -6.094889   2.175483   -9.635453 H        1 UNL1     0.0233
     92 H         -6.942052   3.019491   -8.314294 H        1 UNL1     0.0233
     93 H         -5.351405   3.546545   -8.820908 H        1 UNL1     0.0233
     94 H         -7.270475   1.641401   -6.643341 H        1 UNL1     0.0233
     95 H         -6.796166   0.108713   -7.391826 H        1 UNL1     0.0233
     96 H         -6.036368   0.626339   -5.869078 H        1 UNL1     0.0233
     97 H         6.891094   5.155181   -7.482911 H        1 UNL1     0.0280
     98 H         7.834577   3.803971   -8.049707 H        1 UNL1     0.0280
     99 H         7.092476   4.924967   -9.229701 H        1 UNL1     0.0280
     100 H         5.037488   4.808562   -10.854517 H        1 UNL1     0.2922
     101 H         3.486596   -3.030922   -4.001395 H        1 UNL1     0.0236
     102 H         2.573582   -3.993296   -5.22871 H        1 UNL1     0.0236
     103 H         1.994988   -3.8234   -3.600256 H        1 UNL1     0.0236
     104 H         -0.148735   -2.656569   -2.057289 H        1 UNL1     0.2098
     105 H         0.200688   0.907008   -1.465554 H        1 UNL1     0.0234
     106 H         -0.991467   -0.413593   -1.304698 H        1 UNL1     0.0234
     107 H         -0.0   0.0   0.0 H        1 UNL1     0.0234
     108 H         3.435816   -0.985231   -2.002264 H        1 UNL1     0.2098
     109 H         1.403881   3.53538   -2.241331 H        1 UNL1     0.0234
     110 H         1.460393   1.745048   -2.307062 H        1 UNL1     0.0234
     111 H         0.220174   2.548403   -1.409665 H        1 UNL1     0.0234
     112 H         -1.391314   -0.901884   1.348525 H        1 UNL1     0.0342
     113 H         -1.191991   0.286116   0.011676 H        1 UNL1     0.0342
     114 H         0.184671   -0.667078   0.572206 H        1 UNL1     0.0342
     115 H         3.92004   -0.607883   2.461803 H        1 UNL1     0.0234
     116 H         4.679749   0.450484   1.268703 H        1 UNL1     0.0234
     117 H         3.743651   1.074228   2.642862 H        1 UNL1     0.0234
     118 H         4.476369   4.456565   -3.56474 H        1 UNL1     0.0309
     119 H         4.449113   4.961469   -5.282992 H        1 UNL1     0.0309
     120 H         3.113977   4.092497   -4.558799 H        1 UNL1     0.0309
     121 H         6.237166   2.955329   0.449206 H        1 UNL1     0.0524
     122 H         4.851526   3.338374   1.478833 H        1 UNL1     0.0524
     123 H         5.729113   1.806352   1.71651 H        1 UNL1     0.0524
@<TRIPOS>BOND
     1     1     2    1
     2     1    42    1
     3     2     3    2
     4     3     4    1
     5     4     5    2
     6     5     7    1
     7     6    75    1
     8     6    76    1
     9     6    77    1
    10     7     9   am
    11     9    10    1
    12    10    11    2
    13    10    43    1
    14    11    14    1
    15    11    15    1
    16    12    13   ar
    17    12    27   ar
    18    12    43    1
    19    13    14    1
    20    13    30   ar
    21    14    17    2
    22    15    16    1
    23    16    17    1
    24    16    18    1
    25    16    22    1
    26    18    19    1
    27    19    20    1
    28    20    21    1
    29    21    22    1
    30    23    24    1
    31    23    88    1
    32    23    89    1
    33    24    25    1
    34    24    26    1
    35    24    90    1
    36    25    91    1
    37    25    92    1
    38    25    93    1
    39    26    94    1
    40    26    95    1
    41    26    96    1
    42    27    28   ar
    43    28    29   ar
    44    29    30   ar
    45    29    31    1
    46    30    33    1
    47    31    32    1
    48    32    33    1
    49    32    35    1
    50    34    97    1
    51    34    98    1
    52    34    99    1
    53    35    61    1
    54    36    37    1
    55    36    60    1
    56    37    38    1
    57    38    39    1
    58    39    40    1
    59    40    41    1
    60    41    42    1
    61    45   100    1
    62    47   101    1
    63    47   102    1
    64    47   103    1
    65    48   104    1
    66    49   105    1
    67    49   106    1
    68    49   107    1
    69    50   108    1
    70    51    59    1
    71    52   109    1
    72    52   110    1
    73    52   111    1
    74    53    54    1
    75    54    55    2
    76    54    56    1
    77    56   112    1
    78    56   113    1
    79    56   114    1
    80    57   115    1
    81    57   116    1
    82    57   117    1
    83    58   118    1
    84    58   119    1
    85    58   120    1
    86    59   121    1
    87    59   122    1
    88    59   123    1
    89    60    61    2
    90     1    47    1
    91     1    62    1
    92     2    63    1
    93     3    64    1
    94     4    65    1
    95     5     6    1
    96     7     8    2
    97     9    78    1
    98    15    79    1
    99    18    80    1
   100    18    81    1
   101    19    82    1
   102    19    83    1
   103    20    23    1
   104    21    84    1
   105    21    85    1
   106    22    86    1
   107    22    87    1
   108    27    45    1
   109    28    34    1
   110    32    58    1
   111    33    46    2
   112    36    51    1
   113    36    66    1
   114    37    52    1
   115    37    67    1
   116    38    53    1
   117    38    68    1
   118    42    48    1
   119    42    72    1
   120    43    44    2
   121    60    73    1
   122    61    74    1
   123    39    69    1
   124    39    57    1
   125    40    70    1
   126    40    50    1
   127    41    71    1
   128    41    49    1
