@<TRIPOS>MOLECULE
*****
 123 128 0 0 0
SMALL
GASTEIGER

@<TRIPOS>ATOM
     1 C         5.166343   1.760466   0.457085 C.3        1 UNL1     0.0009
     2 C         6.595798   2.569127   -0.403011 C.2        1 UNL1     -0.0787
     3 C         7.873613   2.473285   -1.076843 C.2        1 UNL1     -0.0649
     4 C         8.743502   3.7098   -1.838867 C.2        1 UNL1     -0.0542
     5 C         9.75687   4.004022   -2.78417 C.2        1 UNL1     0.0115
     6 C         10.88089   3.380446   -3.656553 C.3        1 UNL1     -0.0348
     7 C         9.845074   5.487058   -3.392293 C.2        1 UNL1     0.2441
     8 O         10.669544   6.310776   -3.020454 O.2        1 UNL1     -0.2702
     9 N         9.086941   5.691556   -4.558298 N.am        1 UNL1     -0.2772
     10 C         7.805408   6.075643   -4.236624 C.2        1 UNL1     0.1049
     11 C         6.963641   5.102583   -3.938626 C.2        1 UNL1     0.0801
     12 C         6.512521   7.680434   -2.818731 C.ar        1 UNL1     0.0753
     13 C         5.758816   6.551171   -2.365627 C.ar        1 UNL1     0.0305
     14 C         5.874494   5.245276   -3.010847 C.2        1 UNL1     0.0924
     15 N         7.088163   3.773765   -4.097579 N.pl3        1 UNL1     -0.3170
     16 C         5.821655   3.172033   -3.774888 C.3        1 UNL1     0.1275
     17 N         5.189426   4.126558   -2.791581 N.2        1 UNL1     -0.2557
     18 C         4.960629   3.228344   -5.033127 C.3        1 UNL1     0.0016
     19 C         5.709791   2.545115   -6.166063 C.3        1 UNL1     0.0026
     20 N         5.985419   1.167881   -5.780987 N.3        1 UNL1     -0.3018
     21 C         6.757023   1.010033   -4.546451 C.3        1 UNL1     0.0026
     22 C         5.983935   1.699632   -3.420981 C.3        1 UNL1     0.0016
     23 C         6.424632   0.34854   -6.89293 C.3        1 UNL1     0.0012
     24 C         5.263491   0.09584   -7.86743 C.3        1 UNL1     -0.0339
     25 C         5.348757   1.017783   -9.094951 C.3        1 UNL1     -0.0615
     26 C         5.230202   -1.368451   -8.269333 C.3        1 UNL1     -0.0615
     27 C         6.308525   8.948055   -2.278694 C.ar        1 UNL1     0.1347
     28 C         5.355026   9.216176   -1.312774 C.ar        1 UNL1     0.0342
     29 C         4.658913   8.080515   -0.847087 C.ar        1 UNL1     0.1435
     30 C         4.877941   6.798616   -1.353034 C.ar        1 UNL1     0.0774
     31 O         3.623146   8.1924   0.012957 O.3        1 UNL1     -0.4436
     32 C         2.903286   6.9579   -0.123736 C.3        1 UNL1     0.3143
     33 C         3.915344   5.966644   -0.661661 C.2        1 UNL1     0.2504
     34 C         4.90801   10.581608   -0.870199 C.3        1 UNL1     -0.0327
     35 O         2.552027   6.521342   1.195083 O.2        1 UNL1     -0.4528
     36 C         -0.689234   4.581768   0.820427 C.3        1 UNL1     0.0854
     37 C         -0.997497   3.319881   -0.074078 C.3        1 UNL1     0.0236
     38 C         -1.590233   2.058083   0.71856 C.3        1 UNL1     0.1131
     39 C         -0.855007   1.529666   2.015668 C.3        1 UNL1     0.0200
     40 C         0.806731   1.387793   2.046316 C.3        1 UNL1     0.0661
     41 C         1.760296   0.620238   0.87193 C.3        1 UNL1     0.0091
     42 C         3.463442   0.986136   0.296766 C.3        1 UNL1     0.0661
     43 C         7.455832   7.474017   -3.945592 C.2        1 UNL1     0.2131
     44 O         7.84914   8.372457   -4.667292 O.2        1 UNL1     -0.2851
     45 O         7.115568   9.984614   -2.743092 O.3        1 UNL1     -0.5056
     46 O         3.934813   4.763241   -0.530147 O.2        1 UNL1     -0.2836
     47 C         5.572835   1.332887   1.893024 C.3        1 UNL1     -0.0566
     48 O         3.915618   -0.423923   0.376671 O.3        1 UNL1     -0.3909
     49 C         0.91871   0.384932   -0.362517 C.3        1 UNL1     -0.0577
     50 O         1.406752   2.607249   2.434419 O.3        1 UNL1     -0.3910
     51 O         -0.804006   4.392819   2.212748 O.3        1 UNL1     -0.3753
     52 C         0.039916   3.160873   -1.233146 C.3        1 UNL1     -0.0564
     53 O         -2.196295   1.017136   -0.176675 O.3        1 UNL1     -0.4608
     54 C         -2.40073   -0.296402   0.156121 C.2        1 UNL1     0.3042
     55 O         -1.824358   -1.281649   -0.303142 O.2        1 UNL1     -0.2512
     56 C         -3.413924   -0.489411   1.248321 C.3        1 UNL1     0.0332
     57 C         -1.56942   2.197984   3.281029 C.3        1 UNL1     -0.0567
     58 C         1.820643   7.199856   -1.201174 C.3        1 UNL1     0.0210
     59 C         -1.11505   5.571667   2.953986 C.3        1 UNL1     0.0372
     60 C         0.636875   5.213596   0.580868 C.2        1 UNL1     -0.0208
     61 C         1.554396   5.651453   1.444107 C.2        1 UNL1     0.0882
     62 H         4.688832   2.743657   0.546701 H        1 UNL1     0.0365
     63 H         6.327918   3.622416   -0.29675 H        1 UNL1     0.0576
     64 H         8.331964   1.507281   -1.300131 H        1 UNL1     0.0615
     65 H         8.256641   4.624377   -1.489586 H        1 UNL1     0.0622
     66 H         -1.437491   5.32644   0.514448 H        1 UNL1     0.0645
     67 H         -1.867616   3.626909   -0.680037 H        1 UNL1     0.0362
     68 H         -2.535989   2.493138   1.076043 H        1 UNL1     0.0741
     69 H         -1.183053   0.517986   2.213904 H        1 UNL1     0.0359
     70 H         0.925592   0.728346   2.927259 H        1 UNL1     0.0600
     71 H         1.80885   -0.400521   1.299308 H        1 UNL1     0.0348
     72 H         3.362763   1.474817   1.276751 H        1 UNL1     0.0602
     73 H         0.7477   5.410352   -0.456558 H        1 UNL1     0.0628
     74 H         1.544161   5.441526   2.514184 H        1 UNL1     0.1022
     75 H         10.910031   2.271931   -3.524724 H        1 UNL1     0.0279
     76 H         10.773566   3.485501   -4.733825 H        1 UNL1     0.0279
     77 H         11.888315   3.66541   -3.319517 H        1 UNL1     0.0279
     78 H         9.02349   4.821093   -5.082078 H        1 UNL1     0.1553
     79 H         7.750404   3.346783   -4.718914 H        1 UNL1     0.1484
     80 H         4.001689   2.735448   -4.83249 H        1 UNL1     0.0317
     81 H         4.730017   4.264401   -5.303411 H        1 UNL1     0.0317
     82 H         6.63768   3.078272   -6.420383 H        1 UNL1     0.0428
     83 H         5.078822   2.598242   -7.053817 H        1 UNL1     0.0428
     84 H         6.881607   -0.032428   -4.237315 H        1 UNL1     0.0428
     85 H         7.78562   1.380244   -4.657127 H        1 UNL1     0.0428
     86 H         6.50671   1.45106   -2.516047 H        1 UNL1     0.0317
     87 H         5.006361   1.219944   -3.28928 H        1 UNL1     0.0317
     88 H         7.216112   0.891693   -7.425693 H        1 UNL1     0.0429
     89 H         6.861538   -0.596028   -6.544106 H        1 UNL1     0.0429
     90 H         4.314449   0.286775   -7.352576 H        1 UNL1     0.0308
     91 H         6.301022   0.894633   -9.619478 H        1 UNL1     0.0233
     92 H         4.528789   0.815186   -9.787927 H        1 UNL1     0.0233
     93 H         5.267877   2.078254   -8.827192 H        1 UNL1     0.0233
     94 H         4.548362   -1.512774   -9.114377 H        1 UNL1     0.0233
     95 H         6.226884   -1.693084   -8.581105 H        1 UNL1     0.0233
     96 H         4.895177   -2.001553   -7.442951 H        1 UNL1     0.0233
     97 H         4.113199   10.530748   -0.132013 H        1 UNL1     0.0280
     98 H         5.720133   11.150289   -0.398697 H        1 UNL1     0.0280
     99 H         4.536323   11.148082   -1.739711 H        1 UNL1     0.0280
     100 H         6.645062   10.738647   -3.052416 H        1 UNL1     0.2922
     101 H         4.711088   0.909141   2.408279 H        1 UNL1     0.0236
     102 H         6.036622   2.136282   2.464375 H        1 UNL1     0.0236
     103 H         6.321663   0.523306   1.887697 H        1 UNL1     0.0236
     104 H         4.335651   -0.549938   1.249977 H        1 UNL1     0.2098
     105 H         0.700423   1.282875   -0.935108 H        1 UNL1     0.0234
     106 H         1.285618   -0.402759   -1.020428 H        1 UNL1     0.0234
     107 H         0.0   -0.0   0.0 H        1 UNL1     0.0234
     108 H         1.2173   3.259918   1.733064 H        1 UNL1     0.2098
     109 H         1.068831   3.062316   -0.859873 H        1 UNL1     0.0234
     110 H         -0.18833   2.325175   -1.903411 H        1 UNL1     0.0234
     111 H         0.046165   4.037999   -1.893872 H        1 UNL1     0.0234
     112 H         -3.513836   -1.554305   1.479326 H        1 UNL1     0.0342
     113 H         -3.167308   0.082674   2.141485 H        1 UNL1     0.0342
     114 H         -4.385937   -0.131681   0.881738 H        1 UNL1     0.0342
     115 H         -2.640828   1.957553   3.319332 H        1 UNL1     0.0234
     116 H         -1.133865   1.910367   4.239995 H        1 UNL1     0.0234
     117 H         -1.599814   3.300319   3.237711 H        1 UNL1     0.0234
     118 H         0.919312   7.680854   -0.782547 H        1 UNL1     0.0309
     119 H         2.182011   7.791917   -2.047979 H        1 UNL1     0.0309
     120 H         1.434703   6.266856   -1.626224 H        1 UNL1     0.0309
     121 H         -0.279225   6.261731   2.841895 H        1 UNL1     0.0524
     122 H         -2.017515   6.078839   2.574023 H        1 UNL1     0.0524
     123 H         -1.262325   5.328472   4.002442 H        1 UNL1     0.0524
@<TRIPOS>BOND
     1     1     2    1
     2     1    42    1
     3     2     3    2
     4     3     4    1
     5     4     5    2
     6     5     7    1
     7     6    75    1
     8     6    76    1
     9     6    77    1
    10     7     9   am
    11     9    10    1
    12    10    11    2
    13    10    43    1
    14    11    14    1
    15    11    15    1
    16    12    13   ar
    17    12    27   ar
    18    12    43    1
    19    13    14    1
    20    13    30   ar
    21    14    17    2
    22    15    16    1
    23    16    17    1
    24    16    18    1
    25    16    22    1
    26    18    19    1
    27    19    20    1
    28    20    21    1
    29    21    22    1
    30    23    24    1
    31    23    88    1
    32    23    89    1
    33    24    25    1
    34    24    26    1
    35    24    90    1
    36    25    91    1
    37    25    92    1
    38    25    93    1
    39    26    94    1
    40    26    95    1
    41    26    96    1
    42    27    28   ar
    43    28    29   ar
    44    29    30   ar
    45    29    31    1
    46    30    33    1
    47    31    32    1
    48    32    33    1
    49    32    35    1
    50    34    97    1
    51    34    98    1
    52    34    99    1
    53    35    61    1
    54    36    37    1
    55    36    60    1
    56    37    38    1
    57    38    39    1
    58    39    40    1
    59    40    41    1
    60    41    42    1
    61    45   100    1
    62    47   101    1
    63    47   102    1
    64    47   103    1
    65    48   104    1
    66    49   105    1
    67    49   106    1
    68    49   107    1
    69    50   108    1
    70    51    59    1
    71    52   109    1
    72    52   110    1
    73    52   111    1
    74    53    54    1
    75    54    55    2
    76    54    56    1
    77    56   112    1
    78    56   113    1
    79    56   114    1
    80    57   115    1
    81    57   116    1
    82    57   117    1
    83    58   118    1
    84    58   119    1
    85    58   120    1
    86    59   121    1
    87    59   122    1
    88    59   123    1
    89    60    61    2
    90     1    47    1
    91     1    62    1
    92     2    63    1
    93     3    64    1
    94     4    65    1
    95     5     6    1
    96     7     8    2
    97     9    78    1
    98    15    79    1
    99    18    80    1
   100    18    81    1
   101    19    82    1
   102    19    83    1
   103    20    23    1
   104    21    84    1
   105    21    85    1
   106    22    86    1
   107    22    87    1
   108    27    45    1
   109    28    34    1
   110    32    58    1
   111    33    46    2
   112    36    51    1
   113    36    66    1
   114    37    52    1
   115    37    67    1
   116    38    53    1
   117    38    68    1
   118    42    48    1
   119    42    72    1
   120    43    44    2
   121    60    73    1
   122    61    74    1
   123    39    69    1
   124    39    57    1
   125    40    70    1
   126    40    50    1
   127    41    71    1
   128    41    49    1
