@<TRIPOS>MOLECULE
*****
 123 128 0 0 0
SMALL
GASTEIGER

@<TRIPOS>ATOM
     1 C         5.171045   1.749323   0.446574 C.3        1 UNL1     0.0009
     2 C         6.600375   2.555211   -0.416328 C.2        1 UNL1     -0.0787
     3 C         7.876538   2.456862   -1.092922 C.2        1 UNL1     -0.0649
     4 C         8.747426   3.691763   -1.856422 C.2        1 UNL1     -0.0542
     5 C         9.759393   3.984126   -2.8038 C.2        1 UNL1     0.0115
     6 C         10.880214   3.358435   -3.678781 C.3        1 UNL1     -0.0348
     7 C         9.849453   5.467162   -3.41165 C.2        1 UNL1     0.2441
     8 O         10.676468   6.289006   -3.041321 O.2        1 UNL1     -0.2702
     9 N         9.089264   5.673641   -4.575966 N.am        1 UNL1     -0.2772
     10 C         7.809243   6.060353   -4.251431 C.2        1 UNL1     0.1049
     11 C         6.966045   5.088992   -3.951935 C.2        1 UNL1     0.0801
     12 C         6.522811   7.667445   -2.830276 C.ar        1 UNL1     0.0753
     13 C         5.767675   6.539646   -2.37591 C.ar        1 UNL1     0.0305
     14 C         5.879193   5.233711   -3.021782 C.2        1 UNL1     0.0924
     15 N         7.087398   3.759963   -4.111567 N.pl3        1 UNL1     -0.3170
     16 C         5.820305   3.160826   -3.786353 C.3        1 UNL1     0.1275
     17 N         5.192215   4.116384   -2.801399 N.2        1 UNL1     -0.2557
     18 C         4.956711   3.219365   -5.042728 C.3        1 UNL1     0.0016
     19 C         5.701991   2.534901   -6.177478 C.3        1 UNL1     0.0026
     20 N         5.97551   1.156962   -5.79342 N.3        1 UNL1     -0.3018
     21 C         6.749416   0.997084   -4.560587 C.3        1 UNL1     0.0026
     22 C         5.980207   1.687972   -3.433251 C.3        1 UNL1     0.0016
     23 C         6.410598   0.337039   -6.906554 C.3        1 UNL1     0.0012
     24 C         5.24684   0.087117   -7.878646 C.3        1 UNL1     -0.0339
     25 C         5.312075   1.033081   -9.088999 C.3        1 UNL1     -0.0615
     26 C         5.230588   -1.369659   -8.307968 C.3        1 UNL1     -0.0615
     27 C         6.32267   8.935327   -2.28941 C.ar        1 UNL1     0.1347
     28 C         5.371812   9.205172   -1.321369 C.ar        1 UNL1     0.0342
     29 C         4.674282   8.070848   -0.854545 C.ar        1 UNL1     0.1435
     30 C         4.889497   6.788645   -1.361358 C.ar        1 UNL1     0.0774
     31 O         3.640598   8.184666   0.007748 O.3        1 UNL1     -0.4436
     32 C         2.917821   6.951745   -0.127788 C.3        1 UNL1     0.3143
     33 C         3.926612   5.958506   -0.668185 C.2        1 UNL1     0.2504
     34 C         4.928652   10.571412   -0.877414 C.3        1 UNL1     -0.0327
     35 O         2.568455   6.515519   1.191645 O.2        1 UNL1     -0.4528
     36 C         -0.677722   4.582966   0.823323 C.3        1 UNL1     0.0854
     37 C         -0.990584   3.32202   -0.070912 C.3        1 UNL1     0.0236
     38 C         -1.584307   2.061236   0.722601 C.3        1 UNL1     0.1131
     39 C         -0.847434   1.530847   2.017968 C.3        1 UNL1     0.0200
     40 C         0.814059   1.385428   2.045015 C.3        1 UNL1     0.0661
     41 C         1.763474   0.616215   0.868354 C.3        1 UNL1     0.0091
     42 C         3.466161   0.97867   0.28966 C.3        1 UNL1     0.0661
     43 C         7.463268   7.459376   -3.959217 C.2        1 UNL1     0.2131
     44 O         7.856942   8.357205   -4.681479 O.2        1 UNL1     -0.2851
     45 O         7.130923   9.970312   -2.755212 O.3        1 UNL1     -0.5056
     46 O         3.9438   4.755023   -0.537087 O.2        1 UNL1     -0.2836
     47 C         5.579697   1.320427   1.881507 C.3        1 UNL1     -0.0566
     48 O         3.915504   -0.432374   0.368159 O.3        1 UNL1     -0.3909
     49 C         0.91875   0.383091   -0.364362 C.3        1 UNL1     -0.0577
     50 O         1.417504   2.603482   2.432213 O.3        1 UNL1     -0.3910
     51 O         -0.789917   4.393822   2.215827 O.3        1 UNL1     -0.3753
     52 C         0.044006   3.16117   -1.232247 C.3        1 UNL1     -0.0564
     53 O         -2.194497   1.021864   -0.171658 O.3        1 UNL1     -0.4608
     54 C         -2.42591   -0.284771   0.170516 C.2        1 UNL1     0.3042
     55 O         -1.859473   -1.283932   -0.270692 O.2        1 UNL1     -0.2512
     56 C         -3.45825   -0.450182   1.249232 C.3        1 UNL1     0.0332
     57 C         -1.557715   2.200285   3.285063 C.3        1 UNL1     -0.0567
     58 C         1.833392   7.196343   -1.202831 C.3        1 UNL1     0.0210
     59 C         -1.096864   5.573096   2.958096 C.3        1 UNL1     0.0372
     60 C         0.649214   5.212045   0.581123 C.2        1 UNL1     -0.0208
     61 C         1.569509   5.647677   1.442533 C.2        1 UNL1     0.0882
     62 H         4.695822   2.733499   0.537517 H        1 UNL1     0.0365
     63 H         6.334965   3.609035   -0.309166 H        1 UNL1     0.0576
     64 H         8.332353   1.489955   -1.317491 H        1 UNL1     0.0615
     65 H         8.263261   4.607265   -1.505816 H        1 UNL1     0.0622
     66 H         -1.425044   5.329324   0.519178 H        1 UNL1     0.0645
     67 H         -1.861342   3.63109   -0.674912 H        1 UNL1     0.0362
     68 H         -2.528368   2.49819   1.082242 H        1 UNL1     0.0741
     69 H         -1.177209   0.519805   2.216591 H        1 UNL1     0.0359
     70 H         0.933401   0.725452   2.925498 H        1 UNL1     0.0600
     71 H         1.810769   -0.404779   1.29531 H        1 UNL1     0.0348
     72 H         3.368618   1.467255   1.27001 H        1 UNL1     0.0602
     73 H         0.758238   5.408892   -0.456476 H        1 UNL1     0.0628
     74 H         1.561117   5.437435   2.512563 H        1 UNL1     0.1022
     75 H         10.907277   2.249818   -3.547358 H        1 UNL1     0.0279
     76 H         10.77081   3.464057   -4.755787 H        1 UNL1     0.0279
     77 H         11.888962   3.641147   -3.343813 H        1 UNL1     0.0279
     78 H         9.022839   4.80348   -5.099879 H        1 UNL1     0.1553
     79 H         7.747398   3.331769   -4.73445 H        1 UNL1     0.1484
     80 H         3.997156   2.728449   -4.840193 H        1 UNL1     0.0317
     81 H         4.727728   4.255997   -5.312197 H        1 UNL1     0.0317
     82 H         6.630467   3.066162   -6.433617 H        1 UNL1     0.0428
     83 H         5.069239   2.589651   -7.063862 H        1 UNL1     0.0428
     84 H         6.872441   -0.045738   -4.252043 H        1 UNL1     0.0428
     85 H         7.77856   1.365139   -4.673349 H        1 UNL1     0.0428
     86 H         6.504386   1.438002   -2.529515 H        1 UNL1     0.0317
     87 H         5.001898   1.210324   -3.299608 H        1 UNL1     0.0317
     88 H         7.202091   0.878674   -7.440842 H        1 UNL1     0.0429
     89 H         6.846238   -0.608567   -6.55896 H        1 UNL1     0.0429
     90 H         4.298583   0.25552   -7.354563 H        1 UNL1     0.0308
     91 H         6.262587   0.932672   -9.62149 H        1 UNL1     0.0233
     92 H         4.490551   0.832544   -9.78073 H        1 UNL1     0.0233
     93 H         5.218722   2.087135   -8.800745 H        1 UNL1     0.0233
     94 H         4.531382   -1.51065   -9.139274 H        1 UNL1     0.0233
     95 H         6.225239   -1.669655   -8.649484 H        1 UNL1     0.0233
     96 H         4.927105   -2.024457   -7.486319 H        1 UNL1     0.0233
     97 H         4.135316   10.522012   -0.137544 H        1 UNL1     0.0280
     98 H         5.742991   11.138215   -0.407474 H        1 UNL1     0.0280
     99 H         4.556312   11.13895   -1.745952 H        1 UNL1     0.0280
     100 H         6.661125   10.721288   -3.072936 H        1 UNL1     0.2922
     101 H         4.718154   0.898354   2.398474 H        1 UNL1     0.0236
     102 H         6.046415   2.122653   2.452114 H        1 UNL1     0.0236
     103 H         6.326787   0.509256   1.874327 H        1 UNL1     0.0236
     104 H         4.337135   -0.559558   1.240524 H        1 UNL1     0.2098
     105 H         0.70115   1.281676   -0.936206 H        1 UNL1     0.0234
     106 H         1.282572   -0.405173   -1.023302 H        1 UNL1     0.0234
     107 H         0.0   -0.0   0.0 H        1 UNL1     0.0234
     108 H         1.227942   3.256774   1.731468 H        1 UNL1     0.2098
     109 H         1.073505   3.060306   -0.861207 H        1 UNL1     0.0234
     110 H         -0.187452   2.32617   -1.902281 H        1 UNL1     0.0234
     111 H         0.050709   4.038488   -1.892712 H        1 UNL1     0.0234
     112 H         -3.579475   -1.510956   1.488831 H        1 UNL1     0.0342
     113 H         -3.215275   0.126394   2.140505 H        1 UNL1     0.0342
     114 H         -4.418578   -0.079874   0.864775 H        1 UNL1     0.0342
     115 H         -2.629547   1.962122   3.325583 H        1 UNL1     0.0234
     116 H         -1.120722   1.91144   4.243005 H        1 UNL1     0.0234
     117 H         -1.585854   3.302695   3.242152 H        1 UNL1     0.0234
     118 H         0.935221   7.681948   -0.782733 H        1 UNL1     0.0309
     119 H         2.195054   7.785306   -2.051669 H        1 UNL1     0.0309
     120 H         1.442365   6.264222   -1.62515 H        1 UNL1     0.0309
     121 H         -0.259814   6.261415   2.844431 H        1 UNL1     0.0524
     122 H         -1.999058   6.082307   2.580223 H        1 UNL1     0.0524
     123 H         -1.242413   5.329884   4.006789 H        1 UNL1     0.0524
@<TRIPOS>BOND
     1     1     2    1
     2     1    42    1
     3     2     3    2
     4     3     4    1
     5     4     5    2
     6     5     7    1
     7     6    75    1
     8     6    76    1
     9     6    77    1
    10     7     9   am
    11     9    10    1
    12    10    11    2
    13    10    43    1
    14    11    14    1
    15    11    15    1
    16    12    13   ar
    17    12    27   ar
    18    12    43    1
    19    13    14    1
    20    13    30   ar
    21    14    17    2
    22    15    16    1
    23    16    17    1
    24    16    18    1
    25    16    22    1
    26    18    19    1
    27    19    20    1
    28    20    21    1
    29    21    22    1
    30    23    24    1
    31    23    88    1
    32    23    89    1
    33    24    25    1
    34    24    26    1
    35    24    90    1
    36    25    91    1
    37    25    92    1
    38    25    93    1
    39    26    94    1
    40    26    95    1
    41    26    96    1
    42    27    28   ar
    43    28    29   ar
    44    29    30   ar
    45    29    31    1
    46    30    33    1
    47    31    32    1
    48    32    33    1
    49    32    35    1
    50    34    97    1
    51    34    98    1
    52    34    99    1
    53    35    61    1
    54    36    37    1
    55    36    60    1
    56    37    38    1
    57    38    39    1
    58    39    40    1
    59    40    41    1
    60    41    42    1
    61    45   100    1
    62    47   101    1
    63    47   102    1
    64    47   103    1
    65    48   104    1
    66    49   105    1
    67    49   106    1
    68    49   107    1
    69    50   108    1
    70    51    59    1
    71    52   109    1
    72    52   110    1
    73    52   111    1
    74    53    54    1
    75    54    55    2
    76    54    56    1
    77    56   112    1
    78    56   113    1
    79    56   114    1
    80    57   115    1
    81    57   116    1
    82    57   117    1
    83    58   118    1
    84    58   119    1
    85    58   120    1
    86    59   121    1
    87    59   122    1
    88    59   123    1
    89    60    61    2
    90     1    47    1
    91     1    62    1
    92     2    63    1
    93     3    64    1
    94     4    65    1
    95     5     6    1
    96     7     8    2
    97     9    78    1
    98    15    79    1
    99    18    80    1
   100    18    81    1
   101    19    82    1
   102    19    83    1
   103    20    23    1
   104    21    84    1
   105    21    85    1
   106    22    86    1
   107    22    87    1
   108    27    45    1
   109    28    34    1
   110    32    58    1
   111    33    46    2
   112    36    51    1
   113    36    66    1
   114    37    52    1
   115    37    67    1
   116    38    53    1
   117    38    68    1
   118    42    48    1
   119    42    72    1
   120    43    44    2
   121    60    73    1
   122    61    74    1
   123    39    69    1
   124    39    57    1
   125    40    70    1
   126    40    50    1
   127    41    71    1
   128    41    49    1
