@<TRIPOS>MOLECULE
*****
 123 128 0 0 0
SMALL
GASTEIGER

@<TRIPOS>ATOM
     1 C         -0.97803   -3.810098   3.792253 C.3        1 UNL1     0.0009
     2 C         -2.232127   -4.479499   4.982286 C.2        1 UNL1     -0.0787
     3 C         -2.714594   -4.645677   6.33715 C.2        1 UNL1     -0.0649
     4 C         -4.167258   -5.351347   6.84524 C.2        1 UNL1     -0.0542
     5 C         -5.101791   -5.449731   7.905451 C.2        1 UNL1     0.0115
     6 C         -5.350317   -5.098362   9.398132 C.3        1 UNL1     -0.0348
     7 C         -6.574995   -6.005841   7.593359 C.2        1 UNL1     0.2441
     8 O         -6.926677   -7.146162   7.862644 O.2        1 UNL1     -0.2702
     9 N         -7.511406   -5.021982   7.230995 N.am        1 UNL1     -0.2772
     10 C         -7.481488   -4.80788   5.872103 C.2        1 UNL1     0.1049
     11 C         -6.545776   -3.98585   5.432863 C.2        1 UNL1     0.0801
     12 C         -7.517837   -6.002415   3.674581 C.ar        1 UNL1     0.0753
     13 C         -6.366975   -5.227416   3.323152 C.ar        1 UNL1     0.0305
     14 C         -5.924305   -4.10064   4.141363 C.2        1 UNL1     0.0924
     15 N         -5.739846   -3.152205   6.1126 N.pl3        1 UNL1     -0.3170
     16 C         -5.022888   -2.354706   5.153319 C.3        1 UNL1     0.1275
     17 N         -4.951639   -3.221057   3.919592 N.2        1 UNL1     -0.2557
     18 C         -5.916549   -1.172795   4.789782 C.3        1 UNL1     0.0016
     19 C         -6.290062   -0.435006   6.065614 C.3        1 UNL1     0.0026
     20 N         -5.069297   0.013317   6.72118 N.3        1 UNL1     -0.3018
     21 C         -4.117101   -1.047937   7.054994 C.3        1 UNL1     0.0026
     22 C         -3.752107   -1.772869   5.758403 C.3        1 UNL1     0.0016
     23 C         -5.316582   0.975646   7.776366 C.3        1 UNL1     0.0012
     24 C         -6.826188   1.196344   7.961131 C.3        1 UNL1     -0.0339
     25 C         -7.512549   1.53407   6.627374 C.3        1 UNL1     -0.0615
     26 C         -7.453433   -0.019669   8.620415 C.3        1 UNL1     -0.0615
     27 C         -8.004395   -6.996376   2.828756 C.ar        1 UNL1     0.1347
     28 C         -7.450221   -7.278392   1.592872 C.ar        1 UNL1     0.0342
     29 C         -6.288938   -6.536351   1.289623 C.ar        1 UNL1     0.1435
     30 C         -5.768843   -5.562586   2.143146 C.ar        1 UNL1     0.0774
     31 O         -5.697248   -6.617376   0.07787 O.3        1 UNL1     -0.4436
     32 C         -4.896611   -5.42942   -0.014927 C.3        1 UNL1     0.3143
     33 C         -4.643778   -5.009104   1.418817 C.2        1 UNL1     0.2504
     34 C         -8.061835   -8.148184   0.530097 C.3        1 UNL1     -0.0327
     35 O         -3.63067   -5.810998   -0.567235 O.2        1 UNL1     -0.4528
     36 C         -2.375817   -2.783563   -2.482456 C.3        1 UNL1     0.0854
     37 C         -2.119737   -1.314892   -1.967721 C.3        1 UNL1     0.0236
     38 C         -0.642174   -0.752509   -2.236563 C.3        1 UNL1     0.1131
     39 C         0.61497   -1.612003   -1.808625 C.3        1 UNL1     0.0200
     40 C         0.648141   -2.381844   -0.329206 C.3        1 UNL1     0.0661
     41 C         0.292983   -1.670494   1.169278 C.3        1 UNL1     0.0091
     42 C         -0.463181   -2.389088   2.678331 C.3        1 UNL1     0.0661
     43 C         -8.229575   -5.652203   4.92879 C.2        1 UNL1     0.2131
     44 O         -9.392636   -5.940336   5.145602 O.2        1 UNL1     -0.2851
     45 O         -9.101533   -7.73555   3.26619 O.3        1 UNL1     -0.5056
     46 O         -3.711995   -4.378534   1.866048 O.2        1 UNL1     -0.2836
     47 C         0.325451   -4.651086   3.852741 C.3        1 UNL1     -0.0566
     48 O         0.552913   -1.820072   3.596422 O.3        1 UNL1     -0.3909
     49 C         -0.381435   -0.338161   0.929394 C.3        1 UNL1     -0.0577
     50 O         0.044102   -3.656857   -0.414074 O.3        1 UNL1     -0.3910
     51 O         -1.242364   -3.478408   -2.951397 O.3        1 UNL1     -0.3753
     52 C         -2.892514   -1.020436   -0.640671 C.3        1 UNL1     -0.0564
     53 O         -0.524905   0.733834   -2.065221 O.3        1 UNL1     -0.4608
     54 C         -0.264345   1.380087   -0.885223 C.2        1 UNL1     0.3042
     55 O         0.015139   0.870776   0.199364 O.2        1 UNL1     -0.2512
     56 C         -0.282039   2.877592   -1.003038 C.3        1 UNL1     0.0332
     57 C         1.091745   -2.440686   -3.090867 C.3        1 UNL1     -0.0567
     58 C         -5.778678   -4.359883   -0.700185 C.3        1 UNL1     0.0210
     59 C         -0.246437   -2.658465   -3.561057 C.3        1 UNL1     0.0372
     60 C         -3.057442   -3.68081   -1.510089 C.2        1 UNL1     -0.0208
     61 C         -2.793671   -4.942015   -1.165808 C.2        1 UNL1     0.0882
     62 H         -1.574033   -4.21564   2.965799 H        1 UNL1     0.0365
     63 H         -2.876139   -5.042913   4.303845 H        1 UNL1     0.0576
     64 H         -2.225154   -4.157671   7.182966 H        1 UNL1     0.0615
     65 H         -4.529249   -5.872513   5.95483 H        1 UNL1     0.0622
     66 H         -3.074204   -2.663732   -3.322659 H        1 UNL1     0.0645
     67 H         -2.721194   -0.684554   -2.645573 H        1 UNL1     0.0362
     68 H         -0.639879   -0.760174   -3.337225 H        1 UNL1     0.0741
     69 H         1.479165   -0.96317   -1.757721 H        1 UNL1     0.0359
     70 H         1.731499   -2.593814   -0.248801 H        1 UNL1     0.0600
     71 H         1.307515   -1.348175   1.475534 H        1 UNL1     0.0348
     72 H         -0.097649   -3.24121   2.08707 H        1 UNL1     0.0602
     73 H         -3.942329   -3.209395   -1.160817 H        1 UNL1     0.0628
     74 H         -1.88156   -5.476434   -1.43355 H        1 UNL1     0.1022
     75 H         -5.717311   -5.993581   9.955745 H        1 UNL1     0.0279
     76 H         -4.479329   -4.801863   9.978251 H        1 UNL1     0.0279
     77 H         -6.187413   -4.398508   9.536606 H        1 UNL1     0.0279
     78 H         -7.275934   -4.14193   7.685019 H        1 UNL1     0.1553
     79 H         -5.921509   -2.842661   7.049677 H        1 UNL1     0.1484
     80 H         -5.378955   -0.519414   4.092035 H        1 UNL1     0.0317
     81 H         -6.8198   -1.510419   4.27036 H        1 UNL1     0.0317
     82 H         -6.892471   -1.06354   6.737894 H        1 UNL1     0.0428
     83 H         -6.928686   0.402661   5.783615 H        1 UNL1     0.0428
     84 H         -3.176012   -0.677298   7.473072 H        1 UNL1     0.0428
     85 H         -4.508524   -1.718688   7.832296 H        1 UNL1     0.0428
     86 H         -2.959267   -2.44951   6.018309 H        1 UNL1     0.0317
     87 H         -3.272034   -1.075165   5.061384 H        1 UNL1     0.0317
     88 H         -4.905573   0.571242   8.710617 H        1 UNL1     0.0429
     89 H         -4.798806   1.923536   7.580954 H        1 UNL1     0.0429
     90 H         -6.984993   2.029257   8.656293 H        1 UNL1     0.0308
     91 H         -8.291329   0.804791   6.384977 H        1 UNL1     0.0233
     92 H         -7.954605   2.532554   6.662373 H        1 UNL1     0.0233
     93 H         -6.809444   1.54027   5.785686 H        1 UNL1     0.0233
     94 H         -7.660462   0.187612   9.675882 H        1 UNL1     0.0233
     95 H         -8.401518   -0.262006   8.132182 H        1 UNL1     0.0233
     96 H         -6.793776   -0.889967   8.56209 H        1 UNL1     0.0233
     97 H         -8.952089   -7.699883   0.099162 H        1 UNL1     0.0280
     98 H         -7.375581   -8.320304   -0.309358 H        1 UNL1     0.0280
     99 H         -8.341238   -9.121564   0.965483 H        1 UNL1     0.0280
     100 H         -8.882318   -8.519394   3.738584 H        1 UNL1     0.2922
     101 H         1.166653   -4.007504   4.109329 H        1 UNL1     0.0236
     102 H         0.509801   -5.222018   2.943327 H        1 UNL1     0.0236
     103 H         0.294726   -5.405345   4.656695 H        1 UNL1     0.0236
     104 H         0.389141   -2.192508   4.484927 H        1 UNL1     0.2098
     105 H         -1.463968   -0.391475   0.845182 H        1 UNL1     0.0234
     106 H         -0.095073   0.449232   1.626485 H        1 UNL1     0.0234
     107 H         0.0   0.0   0.0 H        1 UNL1     0.0234
     108 H         -0.696392   -3.670007   0.22253 H        1 UNL1     0.2098
     109 H         -3.649146   -0.233312   -0.765797 H        1 UNL1     0.0234
     110 H         -3.359149   -1.911712   -0.207516 H        1 UNL1     0.0234
     111 H         -2.21876   -0.66223   0.14907 H        1 UNL1     0.0234
     112 H         0.741346   3.264482   -0.984409 H        1 UNL1     0.0342
     113 H         -0.809995   3.212029   -1.89481 H        1 UNL1     0.0342
     114 H         -0.811715   3.28416   -0.130507 H        1 UNL1     0.0342
     115 H         1.822828   -3.217148   -2.826647 H        1 UNL1     0.0234
     116 H         0.278163   -2.926599   -3.633106 H        1 UNL1     0.0234
     117 H         1.670872   -1.839527   -3.812782 H        1 UNL1     0.0234
     118 H         -6.461472   -4.801885   -1.4468 H        1 UNL1     0.0309
     119 H         -6.361367   -3.764364   0.009768 H        1 UNL1     0.0309
     120 H         -5.192227   -3.644217   -1.286702 H        1 UNL1     0.0309
     121 H         -0.040204   -3.069698   -4.548839 H        1 UNL1     0.0524
     122 H         -0.58733   -1.618829   -3.698846 H        1 UNL1     0.0524
     123 H         0.658229   -2.656105   -2.959669 H        1 UNL1     0.0524
@<TRIPOS>BOND
     1     1     2    1
     2     1    42    1
     3     2     3    2
     4     3     4    1
     5     4     5    2
     6     5     7    1
     7     6    75    1
     8     6    76    1
     9     6    77    1
    10     7     9   am
    11     9    10    1
    12    10    11    2
    13    10    43    1
    14    11    14    1
    15    11    15    1
    16    12    13   ar
    17    12    27   ar
    18    12    43    1
    19    13    14    1
    20    13    30   ar
    21    14    17    2
    22    15    16    1
    23    16    17    1
    24    16    18    1
    25    16    22    1
    26    18    19    1
    27    19    20    1
    28    20    21    1
    29    21    22    1
    30    23    24    1
    31    23    88    1
    32    23    89    1
    33    24    25    1
    34    24    26    1
    35    24    90    1
    36    25    91    1
    37    25    92    1
    38    25    93    1
    39    26    94    1
    40    26    95    1
    41    26    96    1
    42    27    28   ar
    43    28    29   ar
    44    29    30   ar
    45    29    31    1
    46    30    33    1
    47    31    32    1
    48    32    33    1
    49    32    35    1
    50    34    97    1
    51    34    98    1
    52    34    99    1
    53    35    61    1
    54    36    37    1
    55    36    60    1
    56    37    38    1
    57    38    39    1
    58    39    40    1
    59    40    41    1
    60    41    42    1
    61    45   100    1
    62    47   101    1
    63    47   102    1
    64    47   103    1
    65    48   104    1
    66    49   105    1
    67    49   106    1
    68    49   107    1
    69    50   108    1
    70    51    59    1
    71    52   109    1
    72    52   110    1
    73    52   111    1
    74    53    54    1
    75    54    55    2
    76    54    56    1
    77    56   112    1
    78    56   113    1
    79    56   114    1
    80    57   115    1
    81    57   116    1
    82    57   117    1
    83    58   118    1
    84    58   119    1
    85    58   120    1
    86    59   121    1
    87    59   122    1
    88    59   123    1
    89    60    61    2
    90     1    47    1
    91     1    62    1
    92     2    63    1
    93     3    64    1
    94     4    65    1
    95     5     6    1
    96     7     8    2
    97     9    78    1
    98    15    79    1
    99    18    80    1
   100    18    81    1
   101    19    82    1
   102    19    83    1
   103    20    23    1
   104    21    84    1
   105    21    85    1
   106    22    86    1
   107    22    87    1
   108    27    45    1
   109    28    34    1
   110    32    58    1
   111    33    46    2
   112    36    51    1
   113    36    66    1
   114    37    52    1
   115    37    67    1
   116    38    53    1
   117    38    68    1
   118    42    48    1
   119    42    72    1
   120    43    44    2
   121    60    73    1
   122    61    74    1
   123    39    69    1
   124    39    57    1
   125    40    70    1
   126    40    50    1
   127    41    71    1
   128    41    49    1
