@<TRIPOS>MOLECULE
*****
 123 128 0 0 0
SMALL
GASTEIGER

@<TRIPOS>ATOM
     1 C         5.167571   1.746561   0.494984 C.3        1 UNL1     0.0009
     2 C         6.6051   2.552355   -0.354275 C.2        1 UNL1     -0.0787
     3 C         7.887345   2.453859   -1.019252 C.2        1 UNL1     -0.0649
     4 C         8.76575   3.688864   -1.773921 C.2        1 UNL1     -0.0542
     5 C         9.786465   3.981389   -2.711816 C.2        1 UNL1     0.0115
     6 C         10.914939   3.355759   -3.576949 C.3        1 UNL1     -0.0348
     7 C         9.88277   5.464794   -3.317805 C.2        1 UNL1     0.2441
     8 O         10.706753   6.285993   -2.939375 O.2        1 UNL1     -0.2702
     9 N         9.133345   5.672425   -4.488874 N.am        1 UNL1     -0.2772
     10 C         7.850594   6.059525   -4.175781 C.2        1 UNL1     0.1049
     11 C         7.00424   5.088362   -3.884663 C.2        1 UNL1     0.0801
     12 C         6.551989   7.666263   -2.765338 C.ar        1 UNL1     0.0753
     13 C         5.792205   6.538515   -2.31866 C.ar        1 UNL1     0.0305
     14 C         5.909005   5.232966   -2.964378 C.2        1 UNL1     0.0924
     15 N         7.126423   3.759384   -4.044088 N.pl3        1 UNL1     -0.3170
     16 C         5.856132   3.160628   -3.73087 C.3        1 UNL1     0.1275
     17 N         5.219519   4.115816   -2.751042 N.2        1 UNL1     -0.2557
     18 C         5.004077   3.220431   -4.995042 C.3        1 UNL1     0.0016
     19 C         5.759371   2.536383   -6.123403 C.3        1 UNL1     0.0026
     20 N         6.028723   1.158054   -5.737805 N.3        1 UNL1     -0.3018
     21 C         6.79126   0.996971   -4.498064 C.3        1 UNL1     0.0026
     22 C         6.01211   1.687459   -3.377329 C.3        1 UNL1     0.0016
     23 C         6.473576   0.33868   -6.847478 C.3        1 UNL1     0.0012
     24 C         5.318629   0.089972   -7.83033 C.3        1 UNL1     -0.0339
     25 C         5.345297   1.093498   -8.994925 C.3        1 UNL1     -0.0615
     26 C         5.357749   -1.344598   -8.327583 C.3        1 UNL1     -0.0615
     27 C         6.34751   8.933873   -2.225457 C.ar        1 UNL1     0.1347
     28 C         5.387977   9.203512   -1.265957 C.ar        1 UNL1     0.0342
     29 C         4.685678   8.069203   -0.8063 C.ar        1 UNL1     0.1435
     30 C         4.904913   6.787243   -1.312001 C.ar        1 UNL1     0.0774
     31 O         3.644215   8.182928   0.046593 O.3        1 UNL1     -0.4436
     32 C         2.922127   6.950442   -0.096381 C.3        1 UNL1     0.3143
     33 C         3.935347   5.957091   -0.62822 C.2        1 UNL1     0.2504
     34 C         4.941421   10.569661   -0.825136 C.3        1 UNL1     -0.0327
     35 O         2.560519   6.513487   1.219507 O.2        1 UNL1     -0.4528
     36 C         -0.683064   4.582727   0.820229 C.3        1 UNL1     0.0854
     37 C         -0.988336   3.322538   -0.077687 C.3        1 UNL1     0.0236
     38 C         -1.589874   2.061498   0.709507 C.3        1 UNL1     0.1131
     39 C         -0.865114   1.529879   2.011188 C.3        1 UNL1     0.0200
     40 C         0.795995   1.383653   2.053312 C.3        1 UNL1     0.0661
     41 C         1.755757   0.614787   0.884846 C.3        1 UNL1     0.0091
     42 C         3.463829   0.976825   0.321977 C.3        1 UNL1     0.0661
     43 C         7.502621   7.458513   -3.885784 C.2        1 UNL1     0.2131
     44 O         7.903298   8.356645   -4.603806 O.2        1 UNL1     -0.2851
     45 O         7.16047   9.96879   -2.68315 O.3        1 UNL1     -0.5056
     46 O         3.950772   4.753511   -0.497792 O.2        1 UNL1     -0.2836
     47 C         5.562897   1.316497   1.933297 C.3        1 UNL1     -0.0566
     48 O         3.911774   -0.434485   0.403613 O.3        1 UNL1     -0.3909
     49 C         0.922219   0.382901   -0.355693 C.3        1 UNL1     -0.0577
     50 O         1.396449   2.601156   2.446837 O.3        1 UNL1     -0.3910
     51 O         -0.808063   4.392692   2.211521 O.3        1 UNL1     -0.3753
     52 C         0.056744   3.161984   -1.229633 C.3        1 UNL1     -0.0564
     53 O         -2.192358   1.023023   -0.190998 O.3        1 UNL1     -0.4608
     54 C         -2.415395   -0.286976   0.143796 C.2        1 UNL1     0.3042
     55 O         -1.843231   -1.280051   -0.303718 O.2        1 UNL1     -0.2512
     56 C         -3.445678   -0.465   1.22247 C.3        1 UNL1     0.0332
     57 C         -1.586625   2.198795   3.272199 C.3        1 UNL1     -0.0567
     58 C         1.847679   7.196286   -1.181117 C.3        1 UNL1     0.0210
     59 C         -1.152147   5.565254   2.948114 C.3        1 UNL1     0.0372
     60 C         0.646324   5.21134   0.59059 C.2        1 UNL1     -0.0208
     61 C         1.558917   5.645949   1.460667 C.2        1 UNL1     0.0882
     62 H         4.691998   2.730901   0.582255 H        1 UNL1     0.0365
     63 H         6.339218   3.606232   -0.248822 H        1 UNL1     0.0576
     64 H         8.344738   1.486888   -1.240308 H        1 UNL1     0.0615
     65 H         8.278832   4.604357   -1.427127 H        1 UNL1     0.0622
     66 H         -1.427227   5.329648   0.50978 H        1 UNL1     0.0645
     67 H         -1.853395   3.632432   -0.689405 H        1 UNL1     0.0362
     68 H         -2.536976   2.498657   1.060809 H        1 UNL1     0.0741
     69 H         -1.197163   0.51886   2.206101 H        1 UNL1     0.0359
     70 H         0.906979   0.723022   2.934397 H        1 UNL1     0.0600
     71 H         1.798672   -0.406519   1.311519 H        1 UNL1     0.0348
     72 H         3.357565   1.464791   1.301729 H        1 UNL1     0.0602
     73 H         0.764914   5.40884   -0.445836 H        1 UNL1     0.0628
     74 H         1.540651   5.434985   2.530432 H        1 UNL1     0.1022
     75 H         10.95888   2.250418   -3.424224 H        1 UNL1     0.0279
     76 H         10.801979   3.438903   -4.655558 H        1 UNL1     0.0279
     77 H         11.919944   3.65996   -3.249647 H        1 UNL1     0.0279
     78 H         9.071301   4.802652   -5.013967 H        1 UNL1     0.1553
     79 H         7.791884   3.331299   -4.661208 H        1 UNL1     0.1484
     80 H         4.042482   2.729833   -4.801615 H        1 UNL1     0.0317
     81 H         4.778051   4.257354   -5.265882 H        1 UNL1     0.0317
     82 H         6.690396   3.067377   -6.370688 H        1 UNL1     0.0428
     83 H         5.134768   2.592036   -7.015493 H        1 UNL1     0.0428
     84 H         6.910973   -0.046118   -4.189121 H        1 UNL1     0.0428
     85 H         7.821564   1.364614   -4.601169 H        1 UNL1     0.0428
     86 H         6.527895   1.436627   -2.469014 H        1 UNL1     0.0317
     87 H         5.032397   1.210186   -3.252954 H        1 UNL1     0.0317
     88 H         7.270171   0.880302   -7.374144 H        1 UNL1     0.0429
     89 H         6.905579   -0.607369   -6.496565 H        1 UNL1     0.0429
     90 H         4.365497   0.196917   -7.298997 H        1 UNL1     0.0308
     91 H         6.294518   1.048359   -9.537183 H        1 UNL1     0.0233
     92 H         4.525349   0.899928   -9.6905 H        1 UNL1     0.0233
     93 H         5.221166   2.129326   -8.656565 H        1 UNL1     0.0233
     94 H         4.66191   -1.473657   -9.163638 H        1 UNL1     0.0233
     95 H         6.362232   -1.589181   -8.684172 H        1 UNL1     0.0233
     96 H         5.082625   -2.048547   -7.537184 H        1 UNL1     0.0233
     97 H         4.147625   10.519997   -0.085776 H        1 UNL1     0.0280
     98 H         5.754127   11.139242   -0.355729 H        1 UNL1     0.0280
     99 H         4.568485   11.134591   -1.695118 H        1 UNL1     0.0280
     100 H         6.69393   10.719419   -3.006444 H        1 UNL1     0.2922
     101 H         4.69961   0.883066   2.437807 H        1 UNL1     0.0236
     102 H         6.013663   2.121497   2.512752 H        1 UNL1     0.0236
     103 H         6.318821   0.513521   1.932418 H        1 UNL1     0.0236
     104 H         4.330742   -0.560888   1.277374 H        1 UNL1     0.2098
     105 H         0.710274   1.281978   -0.928887 H        1 UNL1     0.0234
     106 H         1.291675   -0.405088   -1.011821 H        1 UNL1     0.0234
     107 H         0.0   -0.0   0.0 H        1 UNL1     0.0234
     108 H         1.198575   3.259681   1.753326 H        1 UNL1     0.2098
     109 H         1.078064   3.023242   -0.848362 H        1 UNL1     0.0234
     110 H         -0.188711   2.350754   -1.923463 H        1 UNL1     0.0234
     111 H         0.096359   4.054998   -1.867523 H        1 UNL1     0.0234
     112 H         -3.571581   -1.528962   1.444911 H        1 UNL1     0.0342
     113 H         -3.197448   0.095604   2.122441 H        1 UNL1     0.0342
     114 H         -4.405157   -0.083646   0.846793 H        1 UNL1     0.0342
     115 H         -2.650925   1.930783   3.323414 H        1 UNL1     0.0234
     116 H         -1.135752   1.937803   4.231702 H        1 UNL1     0.0234
     117 H         -1.646613   3.29913   3.212166 H        1 UNL1     0.0234
     118 H         0.94656   7.683441   -0.769208 H        1 UNL1     0.0309
     119 H         2.217783   7.784354   -2.026931 H        1 UNL1     0.0309
     120 H         1.458983   6.264601   -1.60654 H        1 UNL1     0.0309
     121 H         -0.347544   6.287524   2.812844 H        1 UNL1     0.0524
     122 H         -2.081904   6.03158   2.581877 H        1 UNL1     0.0524
     123 H         -1.268547   5.326716   4.001511 H        1 UNL1     0.0524
@<TRIPOS>BOND
     1     1     2    1
     2     1    42    1
     3     2     3    2
     4     3     4    1
     5     4     5    2
     6     5     7    1
     7     6    75    1
     8     6    76    1
     9     6    77    1
    10     7     9   am
    11     9    10    1
    12    10    11    2
    13    10    43    1
    14    11    14    1
    15    11    15    1
    16    12    13   ar
    17    12    27   ar
    18    12    43    1
    19    13    14    1
    20    13    30   ar
    21    14    17    2
    22    15    16    1
    23    16    17    1
    24    16    18    1
    25    16    22    1
    26    18    19    1
    27    19    20    1
    28    20    21    1
    29    21    22    1
    30    23    24    1
    31    23    88    1
    32    23    89    1
    33    24    25    1
    34    24    26    1
    35    24    90    1
    36    25    91    1
    37    25    92    1
    38    25    93    1
    39    26    94    1
    40    26    95    1
    41    26    96    1
    42    27    28   ar
    43    28    29   ar
    44    29    30   ar
    45    29    31    1
    46    30    33    1
    47    31    32    1
    48    32    33    1
    49    32    35    1
    50    34    97    1
    51    34    98    1
    52    34    99    1
    53    35    61    1
    54    36    37    1
    55    36    60    1
    56    37    38    1
    57    38    39    1
    58    39    40    1
    59    40    41    1
    60    41    42    1
    61    45   100    1
    62    47   101    1
    63    47   102    1
    64    47   103    1
    65    48   104    1
    66    49   105    1
    67    49   106    1
    68    49   107    1
    69    50   108    1
    70    51    59    1
    71    52   109    1
    72    52   110    1
    73    52   111    1
    74    53    54    1
    75    54    55    2
    76    54    56    1
    77    56   112    1
    78    56   113    1
    79    56   114    1
    80    57   115    1
    81    57   116    1
    82    57   117    1
    83    58   118    1
    84    58   119    1
    85    58   120    1
    86    59   121    1
    87    59   122    1
    88    59   123    1
    89    60    61    2
    90     1    47    1
    91     1    62    1
    92     2    63    1
    93     3    64    1
    94     4    65    1
    95     5     6    1
    96     7     8    2
    97     9    78    1
    98    15    79    1
    99    18    80    1
   100    18    81    1
   101    19    82    1
   102    19    83    1
   103    20    23    1
   104    21    84    1
   105    21    85    1
   106    22    86    1
   107    22    87    1
   108    27    45    1
   109    28    34    1
   110    32    58    1
   111    33    46    2
   112    36    51    1
   113    36    66    1
   114    37    52    1
   115    37    67    1
   116    38    53    1
   117    38    68    1
   118    42    48    1
   119    42    72    1
   120    43    44    2
   121    60    73    1
   122    61    74    1
   123    39    69    1
   124    39    57    1
   125    40    70    1
   126    40    50    1
   127    41    71    1
   128    41    49    1
