@<TRIPOS>MOLECULE
*****
 123 128 0 0 0
SMALL
GASTEIGER

@<TRIPOS>ATOM
     1 C         1.048479   -3.400636   -4.147931 C.3        1 UNL1     0.0009
     2 C         0.421251   -4.850702   -5.117947 C.2        1 UNL1     -0.0787
     3 C         0.480978   -6.257693   -5.453887 C.2        1 UNL1     -0.0649
     4 C         -0.563505   -7.132882   -6.458604 C.2        1 UNL1     -0.0542
     5 C         -1.035236   -8.424516   -6.799528 C.2        1 UNL1     0.0115
     6 C         -0.795917   -9.945235   -6.59105 C.3        1 UNL1     -0.0348
     7 C         -2.411959   -8.558782   -7.614142 C.2        1 UNL1     0.2441
     8 O         -2.45494   -8.788483   -8.81494 O.2        1 UNL1     -0.2702
     9 N         -3.563252   -8.654842   -6.813238 N.am        1 UNL1     -0.2772
     10 C         -4.049276   -7.401697   -6.518737 C.2        1 UNL1     0.1049
     11 C         -3.475948   -6.778412   -5.50531 C.2        1 UNL1     0.0801
     12 C         -4.661649   -5.214759   -7.567371 C.ar        1 UNL1     0.0753
     13 C         -3.851439   -4.595596   -6.562979 C.ar        1 UNL1     0.0305
     14 C         -3.339363   -5.349568   -5.420895 C.2        1 UNL1     0.0924
     15 N         -2.63   -7.24531   -4.571017 N.pl3        1 UNL1     -0.3170
     16 C         -2.437425   -6.206589   -3.594172 C.3        1 UNL1     0.1275
     17 N         -2.664786   -4.924085   -4.356546 N.2        1 UNL1     -0.2557
     18 C         -3.582085   -6.311494   -2.590953 C.3        1 UNL1     0.0016
     19 C         -3.597447   -7.718917   -2.01605 C.3        1 UNL1     0.0026
     20 N         -2.314777   -7.976924   -1.376347 N.3        1 UNL1     -0.3018
     21 C         -1.146351   -7.839416   -2.248265 C.3        1 UNL1     0.0026
     22 C         -1.148251   -6.417033   -2.811042 C.3        1 UNL1     0.0016
     23 C         -2.328204   -9.163437   -0.544091 C.3        1 UNL1     0.0012
     24 C         -2.005855   -10.411723   -1.380529 C.3        1 UNL1     -0.0339
     25 C         -0.538322   -10.838222   -1.211702 C.3        1 UNL1     -0.0615
     26 C         -2.959972   -11.538299   -1.023783 C.3        1 UNL1     -0.0615
     27 C         -5.245591   -4.465985   -8.586424 C.ar        1 UNL1     0.1347
     28 C         -5.12412   -3.091162   -8.682118 C.ar        1 UNL1     0.0342
     29 C         -4.281952   -2.509472   -7.710752 C.ar        1 UNL1     0.1435
     30 C         -3.661094   -3.251716   -6.705353 C.ar        1 UNL1     0.0774
     31 O         -4.15024   -1.169244   -7.603751 O.3        1 UNL1     -0.4436
     32 C         -3.639141   -0.95971   -6.278706 C.3        1 UNL1     0.3143
     33 C         -2.969814   -2.265725   -5.901164 C.2        1 UNL1     0.2504
     34 C         -5.920003   -2.196882   -9.591477 C.3        1 UNL1     -0.0327
     35 O         -2.604709   0.027428   -6.372303 O.2        1 UNL1     -0.4528
     36 C         -2.617382   1.866155   -3.051609 C.3        1 UNL1     0.0854
     37 C         -2.439996   1.2912   -1.593706 C.3        1 UNL1     0.0236
     38 C         -1.264893   1.968814   -0.738301 C.3        1 UNL1     0.1131
     39 C         0.184754   2.095919   -1.358492 C.3        1 UNL1     0.0200
     40 C         0.862147   0.819452   -2.191683 C.3        1 UNL1     0.0661
     41 C         0.946441   -0.786559   -1.652021 C.3        1 UNL1     0.0091
     42 C         0.898485   -2.361644   -2.591282 C.3        1 UNL1     0.0661
     43 C         -4.93301   -6.667887   -7.436828 C.2        1 UNL1     0.2131
     44 O         -5.881405   -7.225061   -7.959171 O.2        1 UNL1     -0.2851
     45 O         -5.981852   -5.151863   -9.550234 O.3        1 UNL1     -0.5056
     46 O         -2.056605   -2.448353   -5.127504 O.2        1 UNL1     -0.2836
     47 C         2.408385   -2.917025   -4.71956 C.3        1 UNL1     -0.0566
     48 O         2.065289   -2.948294   -1.888767 O.3        1 UNL1     -0.3909
     49 C         0.022805   -0.951895   -0.465827 C.3        1 UNL1     -0.0577
     50 O         0.483869   0.852463   -3.55313 O.3        1 UNL1     -0.3910
     51 O         -1.624511   2.769391   -3.482657 O.3        1 UNL1     -0.3753
     52 C         -2.732844   -0.243602   -1.533928 C.3        1 UNL1     -0.0564
     53 O         -1.339263   1.665917   0.729707 O.3        1 UNL1     -0.4608
     54 C         -0.265035   1.445374   1.551488 C.2        1 UNL1     0.3042
     55 O         0.528093   0.505749   1.507997 O.2        1 UNL1     -0.2512
     56 C         -0.048855   2.533945   2.563908 C.3        1 UNL1     0.0332
     57 C         0.307866   3.555093   -2.001788 C.3        1 UNL1     -0.0567
     58 C         -4.868077   -0.746433   -5.364507 C.3        1 UNL1     0.0210
     59 C         -1.946606   3.492432   -4.66981 C.3        1 UNL1     0.0372
     60 C         -2.756494   0.839282   -4.119945 C.2        1 UNL1     -0.0208
     61 C         -2.18614   0.760696   -5.322968 C.2        1 UNL1     0.0882
     62 H         0.274384   -2.778768   -4.613516 H        1 UNL1     0.0365
     63 H         -0.319167   -4.363843   -5.756084 H        1 UNL1     0.0576
     64 H         1.15022   -6.943483   -4.929563 H        1 UNL1     0.0615
     65 H         -1.125585   -6.358639   -6.987846 H        1 UNL1     0.0622
     66 H         -3.57649   2.40215   -3.022133 H        1 UNL1     0.0645
     67 H         -3.335983   1.645473   -1.054951 H        1 UNL1     0.0362
     68 H         -1.649196   2.998662   -0.681323 H        1 UNL1     0.0741
     69 H         0.893102   2.258604   -0.557127 H        1 UNL1     0.0359
     70 H         1.923465   1.133561   -2.191797 H        1 UNL1     0.0600
     71 H         1.936605   -0.771977   -1.155717 H        1 UNL1     0.0348
     72 H         1.166282   -1.582348   -3.319497 H        1 UNL1     0.0602
     73 H         -3.525951   0.158554   -3.852 H        1 UNL1     0.0628
     74 H         -1.352587   1.382116   -5.652003 H        1 UNL1     0.1022
     75 H         -0.032918   -10.324573   -7.312832 H        1 UNL1     0.0279
     76 H         -0.379549   -10.243762   -5.631577 H        1 UNL1     0.0279
     77 H         -1.671114   -10.554359   -6.860678 H        1 UNL1     0.0279
     78 H         -3.330091   -9.107857   -5.932051 H        1 UNL1     0.1553
     79 H         -2.517922   -8.21949   -4.358072 H        1 UNL1     0.1484
     80 H         -3.439147   -5.559549   -1.805515 H        1 UNL1     0.0317
     81 H         -4.542279   -6.087769   -3.068056 H        1 UNL1     0.0317
     82 H         -3.813145   -8.47185   -2.78837 H        1 UNL1     0.0428
     83 H         -4.422128   -7.772286   -1.30464 H        1 UNL1     0.0428
     84 H         -0.192375   -7.959835   -1.72554 H        1 UNL1     0.0428
     85 H         -1.123726   -8.614536   -3.026722 H        1 UNL1     0.0428
     86 H         -0.215537   -6.311054   -3.333346 H        1 UNL1     0.0317
     87 H         -1.065306   -5.690487   -1.993517 H        1 UNL1     0.0317
     88 H         -1.554075   -9.049251   0.225961 H        1 UNL1     0.0429
     89 H         -3.287417   -9.273469   -0.022001 H        1 UNL1     0.0429
     90 H         -2.185708   -10.190888   -2.439348 H        1 UNL1     0.0308
     91 H         -0.327723   -11.763195   -1.756841 H        1 UNL1     0.0233
     92 H         0.135045   -10.053207   -1.56375 H        1 UNL1     0.0233
     93 H         -0.274246   -11.019945   -0.162857 H        1 UNL1     0.0233
     94 H         -2.435029   -12.49941   -1.046918 H        1 UNL1     0.0233
     95 H         -3.350055   -11.391486   -0.012723 H        1 UNL1     0.0233
     96 H         -3.799781   -11.586326   -1.722628 H        1 UNL1     0.0233
     97 H         -5.641859   -2.323927   -10.633458 H        1 UNL1     0.0280
     98 H         -6.996362   -2.406781   -9.540003 H        1 UNL1     0.0280
     99 H         -5.750116   -1.143566   -9.314422 H        1 UNL1     0.0280
     100 H         -6.889487   -5.275811   -9.334694 H        1 UNL1     0.2922
     101 H         2.598939   -1.89317   -4.398519 H        1 UNL1     0.0236
     102 H         2.482265   -3.027017   -5.80096 H        1 UNL1     0.0236
     103 H         3.255981   -3.498121   -4.319434 H        1 UNL1     0.0236
     104 H         2.311296   -2.3387   -1.165686 H        1 UNL1     0.2098
     105 H         -0.998269   -1.219738   -0.725595 H        1 UNL1     0.0234
     106 H         0.399175   -1.611573   0.3159 H        1 UNL1     0.0234
     107 H         0.0   0.0   0.0 H        1 UNL1     0.0234
     108 H         1.294097   1.008275   -4.075645 H        1 UNL1     0.2098
     109 H         -3.763548   -0.482306   -1.831218 H        1 UNL1     0.0234
     110 H         -2.032481   -0.838916   -2.12961 H        1 UNL1     0.0234
     111 H         -2.618306   -0.638117   -0.515506 H        1 UNL1     0.0234
     112 H         0.540094   3.342712   2.12076 H        1 UNL1     0.0342
     113 H         -0.987677   2.910153   2.967546 H        1 UNL1     0.0342
     114 H         0.528848   2.115495   3.399566 H        1 UNL1     0.0342
     115 H         1.16299   4.110825   -1.592993 H        1 UNL1     0.0234
     116 H         0.406481   3.554014   -3.089135 H        1 UNL1     0.0234
     117 H         -0.528118   4.224863   -1.736311 H        1 UNL1     0.0234
     118 H         -4.729603   -1.205431   -4.369946 H        1 UNL1     0.0309
     119 H         -5.131932   0.30842   -5.238535 H        1 UNL1     0.0309
     120 H         -5.767728   -1.240383   -5.747583 H        1 UNL1     0.0309
     121 H         -2.477859   4.395893   -4.371671 H        1 UNL1     0.0524
     122 H         -1.047341   3.804551   -5.226534 H        1 UNL1     0.0524
     123 H         -2.571756   2.887442   -5.3204 H        1 UNL1     0.0524
@<TRIPOS>BOND
     1     1     2    1
     2     1    42    1
     3     2     3    2
     4     3     4    1
     5     4     5    2
     6     5     7    1
     7     6    75    1
     8     6    76    1
     9     6    77    1
    10     7     9   am
    11     9    10    1
    12    10    11    2
    13    10    43    1
    14    11    14    1
    15    11    15    1
    16    12    13   ar
    17    12    27   ar
    18    12    43    1
    19    13    14    1
    20    13    30   ar
    21    14    17    2
    22    15    16    1
    23    16    17    1
    24    16    18    1
    25    16    22    1
    26    18    19    1
    27    19    20    1
    28    20    21    1
    29    21    22    1
    30    23    24    1
    31    23    88    1
    32    23    89    1
    33    24    25    1
    34    24    26    1
    35    24    90    1
    36    25    91    1
    37    25    92    1
    38    25    93    1
    39    26    94    1
    40    26    95    1
    41    26    96    1
    42    27    28   ar
    43    28    29   ar
    44    29    30   ar
    45    29    31    1
    46    30    33    1
    47    31    32    1
    48    32    33    1
    49    32    35    1
    50    34    97    1
    51    34    98    1
    52    34    99    1
    53    35    61    1
    54    36    37    1
    55    36    60    1
    56    37    38    1
    57    38    39    1
    58    39    40    1
    59    40    41    1
    60    41    42    1
    61    45   100    1
    62    47   101    1
    63    47   102    1
    64    47   103    1
    65    48   104    1
    66    49   105    1
    67    49   106    1
    68    49   107    1
    69    50   108    1
    70    51    59    1
    71    52   109    1
    72    52   110    1
    73    52   111    1
    74    53    54    1
    75    54    55    2
    76    54    56    1
    77    56   112    1
    78    56   113    1
    79    56   114    1
    80    57   115    1
    81    57   116    1
    82    57   117    1
    83    58   118    1
    84    58   119    1
    85    58   120    1
    86    59   121    1
    87    59   122    1
    88    59   123    1
    89    60    61    2
    90     1    47    1
    91     1    62    1
    92     2    63    1
    93     3    64    1
    94     4    65    1
    95     5     6    1
    96     7     8    2
    97     9    78    1
    98    15    79    1
    99    18    80    1
   100    18    81    1
   101    19    82    1
   102    19    83    1
   103    20    23    1
   104    21    84    1
   105    21    85    1
   106    22    86    1
   107    22    87    1
   108    27    45    1
   109    28    34    1
   110    32    58    1
   111    33    46    2
   112    36    51    1
   113    36    66    1
   114    37    52    1
   115    37    67    1
   116    38    53    1
   117    38    68    1
   118    42    48    1
   119    42    72    1
   120    43    44    2
   121    60    73    1
   122    61    74    1
   123    39    69    1
   124    39    57    1
   125    40    70    1
   126    40    50    1
   127    41    71    1
   128    41    49    1
