@<TRIPOS>MOLECULE
*****
 123 128 0 0 0
SMALL
GASTEIGER

@<TRIPOS>ATOM
     1 C         2.859489   1.251575   -2.86843 C.3        1 UNL1     0.0009
     2 C         2.852912   2.814995   -3.864778 C.2        1 UNL1     -0.0787
     3 C         2.647976   3.501999   -5.122583 C.2        1 UNL1     -0.0649
     4 C         2.691168   5.168668   -5.417038 C.2        1 UNL1     -0.0542
     5 C         2.295234   6.202054   -6.301588 C.2        1 UNL1     0.0115
     6 C         1.683024   6.49389   -7.699212 C.3        1 UNL1     -0.0348
     7 C         2.301597   7.71902   -5.776458 C.2        1 UNL1     0.2441
     8 O         3.184015   8.51754   -6.059705 O.2        1 UNL1     -0.2702
     9 N         1.097836   8.143424   -5.187396 N.am        1 UNL1     -0.2772
     10 C         1.091496   7.850106   -3.843057 C.2        1 UNL1     0.1049
     11 C         0.740616   6.619193   -3.517546 C.2        1 UNL1     0.0801
     12 C         2.466308   8.049529   -1.762804 C.ar        1 UNL1     0.0753
     13 C         2.226826   6.652414   -1.564493 C.ar        1 UNL1     0.0305
     14 C         1.247017   5.922711   -2.366091 C.2        1 UNL1     0.0924
     15 N         0.183227   5.65297   -4.267384 N.pl3        1 UNL1     -0.3170
     16 C         -0.157533   4.560995   -3.394614 C.3        1 UNL1     0.1275
     17 N         0.828217   4.66512   -2.256554 N.2        1 UNL1     -0.2557
     18 C         -1.527367   4.869576   -2.797929 C.3        1 UNL1     0.0016
     19 C         -2.512526   5.096596   -3.933496 C.3        1 UNL1     0.0026
     20 N         -2.558717   3.897904   -4.759348 N.3        1 UNL1     -0.3018
     21 C         -1.274184   3.485217   -5.328588 C.3        1 UNL1     0.0026
     22 C         -0.301262   3.258191   -4.170237 C.3        1 UNL1     0.0016
     23 C         -3.674383   3.893126   -5.684503 C.3        1 UNL1     0.0012
     24 C         -5.000216   3.713084   -4.928522 C.3        1 UNL1     -0.0339
     25 C         -4.926543   4.310703   -3.513785 C.3        1 UNL1     -0.0615
     26 C         -6.142337   4.313049   -5.73001 C.3        1 UNL1     -0.0615
     27 C         3.311394   8.764124   -0.917049 C.ar        1 UNL1     0.1347
     28 C         3.939241   8.20126   0.179784 C.ar        1 UNL1     0.0342
     29 C         3.727561   6.813892   0.326634 C.ar        1 UNL1     0.1435
     30 C         2.912457   6.077563   -0.533973 C.ar        1 UNL1     0.0774
     31 O         4.181352   6.142253   1.407366 O.3        1 UNL1     -0.4436
     32 C         3.39826   4.939574   1.442079 C.3        1 UNL1     0.3143
     33 C         2.916289   4.739476   0.019448 C.2        1 UNL1     0.2504
     34 C         4.65246   8.952613   1.269228 C.3        1 UNL1     -0.0327
     35 O         4.291231   3.858164   1.736029 O.2        1 UNL1     -0.4528
     36 C         2.226015   1.283455   3.610555 C.3        1 UNL1     0.0854
     37 C         0.902791   0.550688   3.163729 C.3        1 UNL1     0.0236
     38 C         0.968972   -1.050978   3.208778 C.3        1 UNL1     0.1131
     39 C         2.168632   -1.807238   2.507953 C.3        1 UNL1     0.0200
     40 C         2.693354   -1.340079   0.995053 C.3        1 UNL1     0.0661
     41 C         1.70991   -1.089557   -0.364244 C.3        1 UNL1     0.0091
     42 C         1.891016   0.081727   -1.764493 C.3        1 UNL1     0.0661
     43 C         1.714941   8.73218   -2.845252 C.2        1 UNL1     0.2131
     44 O         1.520083   9.933799   -2.874924 O.2        1 UNL1     -0.2851
     45 O         3.526502   10.109958   -1.206698 O.3        1 UNL1     -0.5056
     46 O         2.622938   3.70574   -0.538394 O.2        1 UNL1     -0.2836
     47 C         4.107823   0.396363   -3.215211 C.3        1 UNL1     -0.0566
     48 O         1.623342   -0.941621   -2.803831 O.3        1 UNL1     -0.3909
     49 C         0.266733   -1.022519   0.083238 C.3        1 UNL1     -0.0577
     50 O         3.65281   -0.306965   1.094273 O.3        1 UNL1     -0.3910
     51 O         3.346865   0.4554   3.82375 O.3        1 UNL1     -0.3753
     52 C         0.17044   1.320416   2.016501 C.3        1 UNL1     -0.0564
     53 O         -0.376619   -1.710255   3.124716 O.3        1 UNL1     -0.4608
     54 C         -0.651378   -2.874149   2.455547 C.2        1 UNL1     0.3042
     55 O         -0.683485   -4.013015   2.920082 O.2        1 UNL1     -0.2512
     56 C         -0.998758   -2.668317   1.008593 C.3        1 UNL1     0.0332
     57 C         3.276477   -2.094122   3.625339 C.3        1 UNL1     -0.0567
     58 C         2.178505   5.237724   2.344761 C.3        1 UNL1     0.0210
     59 C         3.716087   0.286901   5.191649 C.3        1 UNL1     0.0372
     60 C         2.669844   2.383581   2.711723 C.2        1 UNL1     -0.0208
     61 C         3.881631   2.677638   2.238597 C.2        1 UNL1     0.0882
     62 H         3.120497   1.840815   -1.981085 H        1 UNL1     0.0365
     63 H         3.22172   3.529091   -3.125509 H        1 UNL1     0.0576
     64 H         2.269099   2.980643   -6.004483 H        1 UNL1     0.0615
     65 H         3.153659   5.580602   -4.515986 H        1 UNL1     0.0622
     66 H         1.967895   1.760841   4.566339 H        1 UNL1     0.0645
     67 H         0.189844   0.763911   3.979082 H        1 UNL1     0.0362
     68 H         1.122178   -1.198446   4.288734 H        1 UNL1     0.0741
     69 H         1.885761   -2.83981   2.352435 H        1 UNL1     0.0359
     70 H         3.279189   -2.235337   0.711557 H        1 UNL1     0.0600
     71 H         1.749228   -2.098437   -0.819844 H        1 UNL1     0.0348
     72 H         2.88795   -0.001488   -1.307861 H        1 UNL1     0.0602
     73 H         1.862338   3.055281   2.556803 H        1 UNL1     0.0628
     74 H         4.746387   2.016485   2.304247 H        1 UNL1     0.1022
     75 H         1.587984   5.551144   -8.29017 H        1 UNL1     0.0279
     76 H         0.667033   6.88204   -7.712358 H        1 UNL1     0.0279
     77 H         2.351759   7.085735   -8.341252 H        1 UNL1     0.0279
     78 H         0.316123   7.649143   -5.61247 H        1 UNL1     0.1553
     79 H         -0.292397   5.825129   -5.13403 H        1 UNL1     0.1484
     80 H         -1.836648   4.032243   -2.160759 H        1 UNL1     0.0317
     81 H         -1.483223   5.75415   -2.153545 H        1 UNL1     0.0317
     82 H         -2.246752   5.979997   -4.532561 H        1 UNL1     0.0428
     83 H         -3.482114   5.316809   -3.485774 H        1 UNL1     0.0428
     84 H         -1.321275   2.539689   -5.877744 H        1 UNL1     0.0428
     85 H         -0.905255   4.206669   -6.070689 H        1 UNL1     0.0428
     86 H         0.580372   2.831999   -4.611906 H        1 UNL1     0.0317
     87 H         -0.672709   2.456264   -3.520593 H        1 UNL1     0.0317
     88 H         -3.694788   4.862246   -6.19995 H        1 UNL1     0.0429
     89 H         -3.550039   3.121514   -6.45517 H        1 UNL1     0.0429
     90 H         -5.223206   2.642852   -4.844312 H        1 UNL1     0.0308
     91 H         -4.671391   3.547545   -2.772442 H        1 UNL1     0.0233
     92 H         -4.186526   5.113323   -3.471541 H        1 UNL1     0.0233
     93 H         -5.878163   4.755249   -3.198138 H        1 UNL1     0.0233
     94 H         -7.083889   4.212377   -5.179392 H        1 UNL1     0.0233
     95 H         -5.96198   5.378605   -5.897417 H        1 UNL1     0.0233
     96 H         -6.253693   3.817461   -6.698493 H        1 UNL1     0.0233
     97 H         4.223169   8.757125   2.247351 H        1 UNL1     0.0280
     98 H         5.710454   8.669018   1.343245 H        1 UNL1     0.0280
     99 H         4.588086   10.035547   1.073766 H        1 UNL1     0.0280
     100 H         3.753423   10.286168   -2.102845 H        1 UNL1     0.2922
     101 H         4.841235   0.474181   -2.412897 H        1 UNL1     0.0236
     102 H         4.537152   0.638891   -4.186725 H        1 UNL1     0.0236
     103 H         3.86996   -0.678905   -3.273618 H        1 UNL1     0.0236
     104 H         1.359785   -1.764224   -2.34685 H        1 UNL1     0.2098
     105 H         -0.421338   -1.596992   -0.531865 H        1 UNL1     0.0234
     106 H         0.106254   -1.24489   1.138095 H        1 UNL1     0.0234
     107 H         0.0   0.0   0.0 H        1 UNL1     0.0234
     108 H         3.948873   -0.097938   0.187398 H        1 UNL1     0.2098
     109 H         -0.128159   2.333571   2.319929 H        1 UNL1     0.0234
     110 H         0.754866   1.37222   1.091566 H        1 UNL1     0.0234
     111 H         -0.757056   0.814249   1.717348 H        1 UNL1     0.0234
     112 H         -1.226513   -3.630558   0.540015 H        1 UNL1     0.0342
     113 H         -1.821919   -1.966949   0.880799 H        1 UNL1     0.0342
     114 H         -0.12015   -2.246358   0.50148 H        1 UNL1     0.0342
     115 H         3.797826   -3.045041   3.448885 H        1 UNL1     0.0234
     116 H         4.035686   -1.313896   3.708391 H        1 UNL1     0.0234
     117 H         2.853628   -2.26618   4.630095 H        1 UNL1     0.0234
     118 H         2.473604   5.424151   3.392219 H        1 UNL1     0.0309
     119 H         1.574999   6.078245   1.98768 H        1 UNL1     0.0309
     120 H         1.494969   4.385207   2.422849 H        1 UNL1     0.0309
     121 H         4.576396   0.9279   5.382291 H        1 UNL1     0.0524
     122 H         2.913472   0.594314   5.882551 H        1 UNL1     0.0524
     123 H         3.971215   -0.750808   5.387002 H        1 UNL1     0.0524
@<TRIPOS>BOND
     1     1     2    1
     2     1    42    1
     3     2     3    2
     4     3     4    1
     5     4     5    2
     6     5     7    1
     7     6    75    1
     8     6    76    1
     9     6    77    1
    10     7     9   am
    11     9    10    1
    12    10    11    2
    13    10    43    1
    14    11    14    1
    15    11    15    1
    16    12    13   ar
    17    12    27   ar
    18    12    43    1
    19    13    14    1
    20    13    30   ar
    21    14    17    2
    22    15    16    1
    23    16    17    1
    24    16    18    1
    25    16    22    1
    26    18    19    1
    27    19    20    1
    28    20    21    1
    29    21    22    1
    30    23    24    1
    31    23    88    1
    32    23    89    1
    33    24    25    1
    34    24    26    1
    35    24    90    1
    36    25    91    1
    37    25    92    1
    38    25    93    1
    39    26    94    1
    40    26    95    1
    41    26    96    1
    42    27    28   ar
    43    28    29   ar
    44    29    30   ar
    45    29    31    1
    46    30    33    1
    47    31    32    1
    48    32    33    1
    49    32    35    1
    50    34    97    1
    51    34    98    1
    52    34    99    1
    53    35    61    1
    54    36    37    1
    55    36    60    1
    56    37    38    1
    57    38    39    1
    58    39    40    1
    59    40    41    1
    60    41    42    1
    61    45   100    1
    62    47   101    1
    63    47   102    1
    64    47   103    1
    65    48   104    1
    66    49   105    1
    67    49   106    1
    68    49   107    1
    69    50   108    1
    70    51    59    1
    71    52   109    1
    72    52   110    1
    73    52   111    1
    74    53    54    1
    75    54    55    2
    76    54    56    1
    77    56   112    1
    78    56   113    1
    79    56   114    1
    80    57   115    1
    81    57   116    1
    82    57   117    1
    83    58   118    1
    84    58   119    1
    85    58   120    1
    86    59   121    1
    87    59   122    1
    88    59   123    1
    89    60    61    2
    90     1    47    1
    91     1    62    1
    92     2    63    1
    93     3    64    1
    94     4    65    1
    95     5     6    1
    96     7     8    2
    97     9    78    1
    98    15    79    1
    99    18    80    1
   100    18    81    1
   101    19    82    1
   102    19    83    1
   103    20    23    1
   104    21    84    1
   105    21    85    1
   106    22    86    1
   107    22    87    1
   108    27    45    1
   109    28    34    1
   110    32    58    1
   111    33    46    2
   112    36    51    1
   113    36    66    1
   114    37    52    1
   115    37    67    1
   116    38    53    1
   117    38    68    1
   118    42    48    1
   119    42    72    1
   120    43    44    2
   121    60    73    1
   122    61    74    1
   123    39    69    1
   124    39    57    1
   125    40    70    1
   126    40    50    1
   127    41    71    1
   128    41    49    1
