@<TRIPOS>MOLECULE
*****
 123 128 0 0 0
SMALL
GASTEIGER

@<TRIPOS>ATOM
     1 C         -3.262433   4.070681   -1.336421 C.3        1 UNL1     0.0009
     2 C         -4.695166   4.51839   -2.424479 C.2        1 UNL1     -0.0787
     3 C         -5.235414   5.244534   -3.554476 C.2        1 UNL1     -0.0649
     4 C         -6.795229   5.145902   -4.205325 C.2        1 UNL1     -0.0542
     5 C         -7.59393   5.393717   -5.348891 C.2        1 UNL1     0.0115
     6 C         -7.614335   6.079106   -6.74286 C.3        1 UNL1     -0.0348
     7 C         -9.01595   4.659959   -5.477135 C.2        1 UNL1     0.2441
     8 O         -10.077986   5.22245   -5.248643 O.2        1 UNL1     -0.2702
     9 N         -8.977944   3.409977   -6.119204 N.am        1 UNL1     -0.2772
     10 C         -8.727432   2.409621   -5.20824 C.2        1 UNL1     0.1049
     11 C         -7.45995   2.213094   -4.893459 C.2        1 UNL1     0.0801
     12 C         -9.456914   1.522011   -2.986228 C.ar        1 UNL1     0.0753
     13 C         -8.073639   1.525514   -2.618605 C.ar        1 UNL1     0.0305
     14 C         -7.019958   1.746894   -3.606431 C.2        1 UNL1     0.0924
     15 N         -6.342892   2.688138   -5.470557 N.pl3        1 UNL1     -0.3170
     16 C         -5.218253   2.036599   -4.853355 C.3        1 UNL1     0.1275
     17 N         -5.698735   1.687005   -3.466039 N.2        1 UNL1     -0.2557
     18 C         -5.011571   0.709399   -5.576905 C.3        1 UNL1     0.0016
     19 C         -4.839172   0.986717   -7.061816 C.3        1 UNL1     0.0026
     20 N         -3.692867   1.866519   -7.243364 N.3        1 UNL1     -0.3018
     21 C         -3.771866   3.145035   -6.53377 C.3        1 UNL1     0.0026
     22 C         -3.940168   2.842699   -5.04375 C.3        1 UNL1     0.0016
     23 C         -3.260774   1.952118   -8.624166 C.3        1 UNL1     0.0012
     24 C         -4.345832   2.614035   -9.488036 C.3        1 UNL1     -0.0339
     25 C         -4.666151   4.035429   -8.997025 C.3        1 UNL1     -0.0615
     26 C         -3.925062   2.608301   -10.947385 C.3        1 UNL1     -0.0615
     27 C         -10.447749   1.191246   -2.064838 C.ar        1 UNL1     0.1347
     28 C         -10.175688   0.809724   -0.763118 C.ar        1 UNL1     0.0342
     29 C         -8.810772   0.867753   -0.409844 C.ar        1 UNL1     0.1435
     30 C         -7.810504   1.232176   -1.311996 C.ar        1 UNL1     0.0774
     31 O         -8.373213   0.421593   0.787858 O.3        1 UNL1     -0.4436
     32 C         -6.967535   0.198535   0.600278 C.3        1 UNL1     0.3143
     33 C         -6.578157   1.08381   -0.566291 C.2        1 UNL1     0.2504
     34 C         -11.156573   0.202936   0.201129 C.3        1 UNL1     -0.0327
     35 O         -6.296454   0.713414   1.756912 O.2        1 UNL1     -0.4528
     36 C         -3.176793   -1.407138   2.180071 C.3        1 UNL1     0.0854
     37 C         -2.000273   -1.663   1.161317 C.3        1 UNL1     0.0236
     38 C         -0.536613   -1.318545   1.718806 C.3        1 UNL1     0.1131
     39 C         -0.262594   0.087937   2.388874 C.3        1 UNL1     0.0200
     40 C         -0.862508   1.483433   1.699575 C.3        1 UNL1     0.0661
     41 C         -0.708513   1.933015   0.071149 C.3        1 UNL1     0.0091
     42 C         -1.838483   2.891046   -1.010861 C.3        1 UNL1     0.0661
     43 C         -9.795106   1.795298   -4.4051 C.2        1 UNL1     0.2131
     44 O         -10.839796   1.449756   -4.926599 O.2        1 UNL1     -0.2851
     45 O         -11.772718   1.256577   -2.491017 O.3        1 UNL1     -0.5056
     46 O         -5.49906   1.574481   -0.812555 O.2        1 UNL1     -0.2836
     47 C         -2.920801   5.247419   -0.383238 C.3        1 UNL1     -0.0566
     48 O         -0.76973   3.773729   -1.537885 O.3        1 UNL1     -0.3909
     49 C         -0.247579   0.732553   -0.725045 C.3        1 UNL1     -0.0577
     50 O         -2.177944   1.739002   2.149059 O.3        1 UNL1     -0.3910
     51 O         -2.82366   -0.751062   3.376855 O.3        1 UNL1     -0.3753
     52 C         -2.42523   -1.346266   -0.309751 C.3        1 UNL1     -0.0564
     53 O         0.573222   -1.888846   0.884932 O.3        1 UNL1     -0.4608
     54 C         1.89854   -1.910684   1.232761 C.2        1 UNL1     0.3042
     55 O         2.75332   -1.065173   0.971416 O.2        1 UNL1     -0.2512
     56 C         2.280271   -3.095841   2.073235 C.3        1 UNL1     0.0332
     57 C         -0.424189   -0.09142   3.969979 C.3        1 UNL1     -0.0567
     58 C         -6.81199   -1.280866   0.177539 C.3        1 UNL1     0.0210
     59 C         -3.914064   -0.480962   4.256587 C.3        1 UNL1     0.0372
     60 C         -4.346486   -0.67727   1.619471 C.2        1 UNL1     -0.0208
     61 C         -5.057412   0.332708   2.122735 C.2        1 UNL1     0.0882
     62 H         -3.922434   3.396533   -0.777284 H        1 UNL1     0.0365
     63 H         -5.508224   3.996544   -1.915477 H        1 UNL1     0.0576
     64 H         -4.595214   5.831828   -4.216546 H        1 UNL1     0.0615
     65 H         -7.364851   4.615157   -3.43765 H        1 UNL1     0.0622
     66 H         -3.542914   -2.411191   2.43674 H        1 UNL1     0.0645
     67 H         -1.950807   -2.762744   1.079606 H        1 UNL1     0.0362
     68 H         -0.475611   -2.049544   2.539441 H        1 UNL1     0.0741
     69 H         0.804236   0.267401   2.397514 H        1 UNL1     0.0359
     70 H         -0.24086   2.236196   2.221074 H        1 UNL1     0.0600
     71 H         0.223123   2.529967   0.12271 H        1 UNL1     0.0348
     72 H         -2.13653   3.124817   0.021531 H        1 UNL1     0.0602
     73 H         -4.670716   -1.16492   0.733853 H        1 UNL1     0.0628
     74 H         -4.76244   0.921515   2.99195 H        1 UNL1     0.1022
     75 H         -6.648906   5.908772   -7.277619 H        1 UNL1     0.0279
     76 H         -8.346109   5.706382   -7.456059 H        1 UNL1     0.0279
     77 H         -7.634832   7.176791   -6.676779 H        1 UNL1     0.0279
     78 H         -8.2229   3.398863   -6.801745 H        1 UNL1     0.1553
     79 H         -6.312012   3.059567   -6.402233 H        1 UNL1     0.1484
     80 H         -4.130938   0.207353   -5.158332 H        1 UNL1     0.0317
     81 H         -5.861826   0.038422   -5.414095 H        1 UNL1     0.0317
     82 H         -5.747302   1.42378   -7.502485 H        1 UNL1     0.0428
     83 H         -4.69501   0.026924   -7.558874 H        1 UNL1     0.0428
     84 H         -2.8656   3.75228   -6.621791 H        1 UNL1     0.0428
     85 H         -4.564833   3.788938   -6.938627 H        1 UNL1     0.0428
     86 H         -3.860585   3.790867   -4.545119 H        1 UNL1     0.0317
     87 H         -3.069785   2.287363   -4.673437 H        1 UNL1     0.0317
     88 H         -2.356851   2.574085   -8.661234 H        1 UNL1     0.0429
     89 H         -2.98819   0.964765   -9.018634 H        1 UNL1     0.0429
     90 H         -5.261304   2.012695   -9.437905 H        1 UNL1     0.0308
     91 H         -4.298884   4.196787   -7.979095 H        1 UNL1     0.0233
     92 H         -4.223718   4.78219   -9.660508 H        1 UNL1     0.0233
     93 H         -5.743668   4.239345   -8.982516 H        1 UNL1     0.0233
     94 H         -3.19244   3.401325   -11.132355 H        1 UNL1     0.0233
     95 H         -3.457161   1.652041   -11.197579 H        1 UNL1     0.0233
     96 H         -4.78054   2.766758   -11.609969 H        1 UNL1     0.0233
     97 H         -11.23931   0.781541   1.116335 H        1 UNL1     0.0280
     98 H         -12.170817   0.153995   -0.216207 H        1 UNL1     0.0280
     99 H         -10.831797   -0.816817   0.465172 H        1 UNL1     0.0280
     100 H         -11.928605   0.888266   -3.342879 H        1 UNL1     0.2922
     101 H         -3.302646   5.034678   0.615056 H        1 UNL1     0.0236
     102 H         -3.262502   6.212964   -0.754648 H        1 UNL1     0.0236
     103 H         -1.833055   5.367662   -0.247063 H        1 UNL1     0.0236
     104 H         -0.126744   3.921201   -0.81692 H        1 UNL1     0.2098
     105 H         -1.005592   0.309868   -1.379694 H        1 UNL1     0.0234
     106 H         0.684262   0.878817   -1.271129 H        1 UNL1     0.0234
     107 H         0.0   0.0   0.0 H        1 UNL1     0.0234
     108 H         -2.137954   2.519737   2.734399 H        1 UNL1     0.2098
     109 H         -1.59453   -0.941819   -0.90479 H        1 UNL1     0.0234
     110 H         -2.860882   -2.207951   -0.826907 H        1 UNL1     0.0234
     111 H         -3.216084   -0.585305   -0.347641 H        1 UNL1     0.0234
     112 H         2.04586   -4.021736   1.539273 H        1 UNL1     0.0342
     113 H         3.328496   -3.068941   2.367079 H        1 UNL1     0.0342
     114 H         1.676636   -3.074295   2.991018 H        1 UNL1     0.0342
     115 H         -0.237078   0.847668   4.508766 H        1 UNL1     0.0234
     116 H         -1.406281   -0.456241   4.277307 H        1 UNL1     0.0234
     117 H         0.339402   -0.750105   4.418313 H        1 UNL1     0.0234
     118 H         -5.874006   -1.457008   -0.377588 H        1 UNL1     0.0309
     119 H         -6.865026   -1.976558   1.020985 H        1 UNL1     0.0309
     120 H         -7.586809   -1.600117   -0.528039 H        1 UNL1     0.0309
     121 H         -3.559858   -0.630293   5.276192 H        1 UNL1     0.0524
     122 H         -4.267601   0.560548   4.177168 H        1 UNL1     0.0524
     123 H         -4.742268   -1.151498   4.04551 H        1 UNL1     0.0524
@<TRIPOS>BOND
     1     1     2    1
     2     1    42    1
     3     2     3    2
     4     3     4    1
     5     4     5    2
     6     5     7    1
     7     6    75    1
     8     6    76    1
     9     6    77    1
    10     7     9   am
    11     9    10    1
    12    10    11    2
    13    10    43    1
    14    11    14    1
    15    11    15    1
    16    12    13   ar
    17    12    27   ar
    18    12    43    1
    19    13    14    1
    20    13    30   ar
    21    14    17    2
    22    15    16    1
    23    16    17    1
    24    16    18    1
    25    16    22    1
    26    18    19    1
    27    19    20    1
    28    20    21    1
    29    21    22    1
    30    23    24    1
    31    23    88    1
    32    23    89    1
    33    24    25    1
    34    24    26    1
    35    24    90    1
    36    25    91    1
    37    25    92    1
    38    25    93    1
    39    26    94    1
    40    26    95    1
    41    26    96    1
    42    27    28   ar
    43    28    29   ar
    44    29    30   ar
    45    29    31    1
    46    30    33    1
    47    31    32    1
    48    32    33    1
    49    32    35    1
    50    34    97    1
    51    34    98    1
    52    34    99    1
    53    35    61    1
    54    36    37    1
    55    36    60    1
    56    37    38    1
    57    38    39    1
    58    39    40    1
    59    40    41    1
    60    41    42    1
    61    45   100    1
    62    47   101    1
    63    47   102    1
    64    47   103    1
    65    48   104    1
    66    49   105    1
    67    49   106    1
    68    49   107    1
    69    50   108    1
    70    51    59    1
    71    52   109    1
    72    52   110    1
    73    52   111    1
    74    53    54    1
    75    54    55    2
    76    54    56    1
    77    56   112    1
    78    56   113    1
    79    56   114    1
    80    57   115    1
    81    57   116    1
    82    57   117    1
    83    58   118    1
    84    58   119    1
    85    58   120    1
    86    59   121    1
    87    59   122    1
    88    59   123    1
    89    60    61    2
    90     1    47    1
    91     1    62    1
    92     2    63    1
    93     3    64    1
    94     4    65    1
    95     5     6    1
    96     7     8    2
    97     9    78    1
    98    15    79    1
    99    18    80    1
   100    18    81    1
   101    19    82    1
   102    19    83    1
   103    20    23    1
   104    21    84    1
   105    21    85    1
   106    22    86    1
   107    22    87    1
   108    27    45    1
   109    28    34    1
   110    32    58    1
   111    33    46    2
   112    36    51    1
   113    36    66    1
   114    37    52    1
   115    37    67    1
   116    38    53    1
   117    38    68    1
   118    42    48    1
   119    42    72    1
   120    43    44    2
   121    60    73    1
   122    61    74    1
   123    39    69    1
   124    39    57    1
   125    40    70    1
   126    40    50    1
   127    41    71    1
   128    41    49    1
