@<TRIPOS>MOLECULE
*****
 123 128 0 0 0
SMALL
GASTEIGER

@<TRIPOS>ATOM
     1 C         2.666811   -2.702506   3.869053 C.3        1 UNL1     0.0009
     2 C         2.534775   -4.109544   5.06899 C.2        1 UNL1     -0.0787
     3 C         2.416694   -4.59446   6.428018 C.2        1 UNL1     -0.0649
     4 C         2.197579   -6.190711   6.947951 C.2        1 UNL1     -0.0542
     5 C         1.768409   -7.014908   8.017338 C.2        1 UNL1     0.0115
     6 C         1.352402   -7.016242   9.514088 C.3        1 UNL1     -0.0348
     7 C         1.405868   -8.549824   7.718029 C.2        1 UNL1     0.2441
     8 O         2.159042   -9.475869   7.985793 O.2        1 UNL1     -0.2702
     9 N         0.063659   -8.780886   7.36984 N.am        1 UNL1     -0.2772
     10 C         -0.110353   -8.644962   6.011692 C.2        1 UNL1     0.1049
     11 C         -0.275351   -7.412568   5.566492 C.2        1 UNL1     0.0801
     12 C         0.840099   -9.354478   3.809293 C.ar        1 UNL1     0.0753
     13 C         0.834916   -7.969163   3.449454 C.ar        1 UNL1     0.0305
     14 C         0.154071   -6.968513   4.268113 C.2        1 UNL1     0.0924
     15 N         -0.511672   -6.274624   6.241594 N.pl3        1 UNL1     -0.3170
     16 C         -0.783204   -5.240671   5.278543 C.3        1 UNL1     0.1275
     17 N         -0.036032   -5.672032   4.040243 N.2        1 UNL1     -0.2557
     18 C         -2.266009   -5.325836   4.929634 C.3        1 UNL1     0.0016
     19 C         -3.074546   -5.216818   6.212588 C.3        1 UNL1     0.0026
     20 N         -2.759973   -3.949464   6.857481 N.3        1 UNL1     -0.3018
     21 C         -1.344985   -3.748621   7.176608 C.3        1 UNL1     0.0026
     22 C         -0.552068   -3.857669   5.873041 C.3        1 UNL1     0.0016
     23 C         -3.686651   -3.611819   7.91951 C.3        1 UNL1     0.0012
     24 C         -4.441854   -4.863503   8.393549 C.3        1 UNL1     -0.0339
     25 C         -5.260274   -4.579124   9.663736 C.3        1 UNL1     -0.0615
     26 C         -5.316373   -5.399489   7.273408 C.3        1 UNL1     -0.0615
     27 C         1.385958   -10.317684   2.964077 C.ar        1 UNL1     0.1347
     28 C         1.917219   -10.022388   1.721252 C.ar        1 UNL1     0.0342
     29 C         1.945665   -8.646502   1.409334 C.ar        1 UNL1     0.1435
     30 C         1.43534   -7.666667   2.261808 C.ar        1 UNL1     0.0774
     31 O         2.331214   -8.207861   0.191158 O.3        1 UNL1     -0.4436
     32 C         1.790444   -6.881484   0.095431 C.3        1 UNL1     0.3143
     33 C         1.596117   -6.428535   1.52836 C.2        1 UNL1     0.2504
     34 C         2.288219   -11.021505   0.660958 C.3        1 UNL1     -0.0327
     35 O         2.807641   -6.046657   -0.47169 O.2        1 UNL1     -0.4528
     36 C         0.97564   -3.328791   -2.386125 C.3        1 UNL1     0.0854
     37 C         -0.095938   -2.294279   -1.867445 C.3        1 UNL1     0.0236
     38 C         0.258289   -0.755784   -2.149049 C.3        1 UNL1     0.1131
     39 C         1.67667   -0.188732   -1.738055 C.3        1 UNL1     0.0200
     40 C         2.348352   -0.581376   -0.262551 C.3        1 UNL1     0.0661
     41 C         1.574116   -0.470505   1.242732 C.3        1 UNL1     0.0091
     42 C         1.763528   -1.489666   2.756283 C.3        1 UNL1     0.0661
     43 C         0.164566   -9.742446   5.072382 C.2        1 UNL1     0.2131
     44 O         -0.24251   -10.867277   5.299937 O.2        1 UNL1     -0.2851
     45 O         1.392169   -11.637904   3.409519 O.3        1 UNL1     -0.5056
     46 O         1.59632   -5.300745   1.96875 O.2        1 UNL1     -0.2836
     47 C         4.092159   -2.088908   3.912225 C.3        1 UNL1     -0.0566
     48 O         1.866316   -0.323335   3.66635 O.3        1 UNL1     -0.3909
     49 C         0.08983   -0.289051   1.015874 C.3        1 UNL1     -0.0577
     50 O         3.069291   -1.794164   -0.34691 O.3        1 UNL1     -0.3910
     51 O         2.179839   -2.77809   -2.869926 O.3        1 UNL1     -0.3753
     52 C         -0.758516   -2.763559   -0.531138 C.3        1 UNL1     -0.0564
     53 O         -0.908612   0.171255   -1.97222 O.3        1 UNL1     -0.4608
     54 C         -0.93485   1.493748   -2.330346 C.2        1 UNL1     0.3042
     55 O         -1.516573   1.995916   -3.291213 O.2        1 UNL1     -0.2512
     56 C         -0.1997   2.3902   -1.375023 C.3        1 UNL1     0.0332
     57 C         2.618166   -0.262741   -3.028901 C.3        1 UNL1     -0.0567
     58 C         0.404325   -7.021633   -0.575807 C.3        1 UNL1     0.0210
     59 C         2.026458   -1.853317   -3.945628 C.3        1 UNL1     0.0372
     60 C         1.349799   -4.388942   -1.410807 C.2        1 UNL1     -0.0208
     61 C         2.54712   -4.871004   -1.074978 C.2        1 UNL1     0.0882
     62 H         2.663364   -3.428404   3.047 H        1 UNL1     0.0365
     63 H         2.637034   -4.962409   4.394724 H        1 UNL1     0.0576
     64 H         2.292466   -3.910934   7.27091 H        1 UNL1     0.0615
     65 H         2.419956   -6.787193   6.058996 H        1 UNL1     0.0622
     66 H         0.478843   -3.846867   -3.218493 H        1 UNL1     0.0645
     67 H         -0.960957   -2.446289   -2.536171 H        1 UNL1     0.0362
     68 H         0.255442   -0.764854   -3.2497 H        1 UNL1     0.0741
     69 H         1.620259   0.890718   -1.693183 H        1 UNL1     0.0359
     70 H         3.128997   0.200289   -0.194341 H        1 UNL1     0.0600
     71 H         1.875001   0.553269   1.539905 H        1 UNL1     0.0348
     72 H         2.669055   -1.664883   2.157421 H        1 UNL1     0.0602
     73 H         0.468503   -4.858588   -1.050252 H        1 UNL1     0.0628
     74 H         3.496672   -4.413386   -1.354574 H        1 UNL1     0.1022
     75 H         1.264701   -8.062066   9.895657 H        1 UNL1     0.0279
     76 H         2.055739   -6.569907   10.213495 H        1 UNL1     0.0279
     77 H         0.33043   -6.641524   9.671761 H        1 UNL1     0.0279
     78 H         -0.531337   -8.09201   7.825369 H        1 UNL1     0.1553
     79 H         -0.86098   -6.247152   7.181893 H        1 UNL1     0.1484
     80 H         -2.515392   -4.519537   4.229308 H        1 UNL1     0.0317
     81 H         -2.494187   -6.267061   4.418085 H        1 UNL1     0.0317
     82 H         -2.882164   -6.063226   6.888232 H        1 UNL1     0.0428
     83 H         -4.128628   -5.281685   5.941012 H        1 UNL1     0.0428
     84 H         -1.124088   -2.758195   7.586576 H        1 UNL1     0.0428
     85 H         -0.998943   -4.442774   7.954889 H        1 UNL1     0.0428
     86 H         0.454092   -3.575141   6.121653 H        1 UNL1     0.0317
     87 H         -0.870304   -3.074407   5.174241 H        1 UNL1     0.0317
     88 H         -3.108577   -3.212084   8.762918 H        1 UNL1     0.0429
     89 H         -4.383538   -2.824197   7.605224 H        1 UNL1     0.0429
     90 H         -3.718446   -5.657224   8.614685 H        1 UNL1     0.0308
     91 H         -4.625088   -4.198652   10.469268 H        1 UNL1     0.0233
     92 H         -6.052161   -3.854843   9.458945 H        1 UNL1     0.0233
     93 H         -5.759006   -5.476765   10.048887 H        1 UNL1     0.0233
     94 H         -5.291475   -4.71836   6.415924 H        1 UNL1     0.0233
     95 H         -4.943956   -6.372767   6.94175 H        1 UNL1     0.0233
     96 H         -6.355243   -5.510479   7.596517 H        1 UNL1     0.0233
     97 H         1.545906   -11.070739   -0.130104 H        1 UNL1     0.0280
     98 H         3.23626   -10.769215   0.168186 H        1 UNL1     0.0280
     99 H         2.378548   -12.022855   1.112881 H        1 UNL1     0.0280
     100 H         1.28861   -11.737817   4.339528 H        1 UNL1     0.2922
     101 H         4.835691   -2.885654   3.908873 H        1 UNL1     0.0236
     102 H         4.236548   -1.398239   4.742352 H        1 UNL1     0.0236
     103 H         4.314702   -1.494641   3.010274 H        1 UNL1     0.0236
     104 H         2.333187   0.38687   3.184053 H        1 UNL1     0.2098
     105 H         -0.499875   -1.19111   1.15852 H        1 UNL1     0.0234
     106 H         -0.355605   0.543501   1.560274 H        1 UNL1     0.0234
     107 H         0.0   0.0   0.0 H        1 UNL1     0.0234
     108 H         4.017691   -1.573736   -0.271292 H        1 UNL1     0.2098
     109 H         -1.011466   -1.920114   0.126379 H        1 UNL1     0.0234
     110 H         -1.646189   -3.386214   -0.686321 H        1 UNL1     0.0234
     111 H         -0.083298   -3.403356   0.052546 H        1 UNL1     0.0234
     112 H         -0.313683   3.434323   -1.681877 H        1 UNL1     0.0342
     113 H         -0.526106   2.247534   -0.345971 H        1 UNL1     0.0342
     114 H         0.869029   2.139833   -1.42299 H        1 UNL1     0.0342
     115 H         3.624741   0.12667   -2.823101 H        1 UNL1     0.0234
     116 H         2.732495   -1.268567   -3.437914 H        1 UNL1     0.0234
     117 H         2.295338   0.403165   -3.847616 H        1 UNL1     0.0234
     118 H         -0.415922   -6.724101   0.100711 H        1 UNL1     0.0309
     119 H         0.320418   -6.457539   -1.510131 H        1 UNL1     0.0309
     120 H         0.1614   -8.060197   -0.825764 H        1 UNL1     0.0309
     121 H         3.002536   -1.726545   -4.413131 H        1 UNL1     0.0524
     122 H         1.333224   -2.22294   -4.719477 H        1 UNL1     0.0524
     123 H         1.662787   -0.900006   -3.572753 H        1 UNL1     0.0524
@<TRIPOS>BOND
     1     1     2    1
     2     1    42    1
     3     2     3    2
     4     3     4    1
     5     4     5    2
     6     5     7    1
     7     6    75    1
     8     6    76    1
     9     6    77    1
    10     7     9   am
    11     9    10    1
    12    10    11    2
    13    10    43    1
    14    11    14    1
    15    11    15    1
    16    12    13   ar
    17    12    27   ar
    18    12    43    1
    19    13    14    1
    20    13    30   ar
    21    14    17    2
    22    15    16    1
    23    16    17    1
    24    16    18    1
    25    16    22    1
    26    18    19    1
    27    19    20    1
    28    20    21    1
    29    21    22    1
    30    23    24    1
    31    23    88    1
    32    23    89    1
    33    24    25    1
    34    24    26    1
    35    24    90    1
    36    25    91    1
    37    25    92    1
    38    25    93    1
    39    26    94    1
    40    26    95    1
    41    26    96    1
    42    27    28   ar
    43    28    29   ar
    44    29    30   ar
    45    29    31    1
    46    30    33    1
    47    31    32    1
    48    32    33    1
    49    32    35    1
    50    34    97    1
    51    34    98    1
    52    34    99    1
    53    35    61    1
    54    36    37    1
    55    36    60    1
    56    37    38    1
    57    38    39    1
    58    39    40    1
    59    40    41    1
    60    41    42    1
    61    45   100    1
    62    47   101    1
    63    47   102    1
    64    47   103    1
    65    48   104    1
    66    49   105    1
    67    49   106    1
    68    49   107    1
    69    50   108    1
    70    51    59    1
    71    52   109    1
    72    52   110    1
    73    52   111    1
    74    53    54    1
    75    54    55    2
    76    54    56    1
    77    56   112    1
    78    56   113    1
    79    56   114    1
    80    57   115    1
    81    57   116    1
    82    57   117    1
    83    58   118    1
    84    58   119    1
    85    58   120    1
    86    59   121    1
    87    59   122    1
    88    59   123    1
    89    60    61    2
    90     1    47    1
    91     1    62    1
    92     2    63    1
    93     3    64    1
    94     4    65    1
    95     5     6    1
    96     7     8    2
    97     9    78    1
    98    15    79    1
    99    18    80    1
   100    18    81    1
   101    19    82    1
   102    19    83    1
   103    20    23    1
   104    21    84    1
   105    21    85    1
   106    22    86    1
   107    22    87    1
   108    27    45    1
   109    28    34    1
   110    32    58    1
   111    33    46    2
   112    36    51    1
   113    36    66    1
   114    37    52    1
   115    37    67    1
   116    38    53    1
   117    38    68    1
   118    42    48    1
   119    42    72    1
   120    43    44    2
   121    60    73    1
   122    61    74    1
   123    39    69    1
   124    39    57    1
   125    40    70    1
   126    40    50    1
   127    41    71    1
   128    41    49    1
