@<TRIPOS>MOLECULE
*****
 123 128 0 0 0
SMALL
GASTEIGER

@<TRIPOS>ATOM
     1 C         4.981833   2.062159   0.95662 C.3        1 UNL1     0.0009
     2 C         6.583001   1.854242   1.867702 C.2        1 UNL1     -0.0787
     3 C         7.454308   2.199601   2.971149 C.2        1 UNL1     -0.0649
     4 C         8.938747   1.497874   3.383918 C.2        1 UNL1     -0.0542
     5 C         9.885095   1.308673   4.421081 C.2        1 UNL1     0.0115
     6 C         10.284647   1.755073   5.854402 C.3        1 UNL1     -0.0348
     7 C         10.966405   0.13052   4.280682 C.2        1 UNL1     0.2441
     8 O         12.129066   0.329575   3.956457 O.2        1 UNL1     -0.2702
     9 N         10.559369   -1.108186   4.806116 N.am        1 UNL1     -0.2772
     10 C         9.884345   -1.835638   3.852975 C.2        1 UNL1     0.1049
     11 C         8.603141   -1.552026   3.703634 C.2        1 UNL1     0.0801
     12 C         10.028856   -2.611551   1.479283 C.ar        1 UNL1     0.0753
     13 C         8.704313   -2.095515   1.312249 C.ar        1 UNL1     0.0305
     14 C         7.900129   -1.66761   2.454719 C.2        1 UNL1     0.0924
     15 N         7.786946   -0.811499   4.473032 N.pl3        1 UNL1     -0.3170
     16 C         6.449244   -0.959788   3.964292 C.3        1 UNL1     0.1275
     17 N         6.63425   -1.261814   2.497228 N.2        1 UNL1     -0.2557
     18 C         5.866358   -2.224835   4.586868 C.3        1 UNL1     0.0016
     19 C         5.952972   -2.106517   6.100172 C.3        1 UNL1     0.0026
     20 N         5.210874   -0.925918   6.520298 N.3        1 UNL1     -0.3018
     21 C         5.659227   0.334667   5.925089 C.3        1 UNL1     0.0026
     22 C         5.559541   0.19507   4.405066 C.3        1 UNL1     0.0016
     23 C         4.978067   -0.885456   7.950266 C.3        1 UNL1     0.0012
     24 C         3.676952   -1.622256   8.305206 C.3        1 UNL1     -0.0339
     25 C         2.821014   -1.885782   7.055414 C.3        1 UNL1     -0.0615
     26 C         3.993021   -2.908923   9.047748 C.3        1 UNL1     -0.0615
     27 C         10.743014   -3.129268   0.401292 C.ar        1 UNL1     0.1347
     28 C         10.224523   -3.220214   -0.87814 C.ar        1 UNL1     0.0342
     29 C         8.937582   -2.661394   -1.028693 C.ar        1 UNL1     0.1435
     30 C         8.224446   -2.106557   0.034705 C.ar        1 UNL1     0.0774
     31 O         8.252879   -2.771021   -2.188076 O.3        1 UNL1     -0.4436
     32 C         6.884535   -2.532849   -1.825059 C.3        1 UNL1     0.3143
     33 C         6.949168   -1.732313   -0.540077 C.2        1 UNL1     0.2504
     34 C         10.828655   -3.986308   -2.021917 C.3        1 UNL1     -0.0327
     35 O         6.322165   -1.673366   -2.8242 O.2        1 UNL1     -0.4528
     36 C         2.632557   -2.548803   -2.992998 C.3        1 UNL1     0.0854
     37 C         1.55037   -2.52894   -1.845829 C.3        1 UNL1     0.0236
     38 C         0.250824   -1.642639   -2.157909 C.3        1 UNL1     0.1131
     39 C         0.419036   -0.149637   -2.652805 C.3        1 UNL1     0.0200
     40 C         1.535122   0.858781   -1.931775 C.3        1 UNL1     0.0661
     41 C         1.713583   1.112442   -0.264017 C.3        1 UNL1     0.0091
     42 C         3.210372   1.482777   0.729904 C.3        1 UNL1     0.0661
     43 C         10.583001   -2.659349   2.85511 C.2        1 UNL1     0.2131
     44 O         11.488245   -3.401409   3.190696 O.2        1 UNL1     -0.2851
     45 O         12.043216   -3.569373   0.640497 O.3        1 UNL1     -0.5056
     46 O         6.140299   -0.945799   -0.100782 O.2        1 UNL1     -0.2836
     47 C         4.978146   3.40133   0.171388 C.3        1 UNL1     -0.0566
     48 O         2.576498   2.593971   1.47995 O.3        1 UNL1     -0.3909
     49 C         0.945482   0.041139   0.477484 C.3        1 UNL1     -0.0577
     50 O         2.804244   0.716124   -2.537334 O.3        1 UNL1     -0.3910
     51 O         2.411619   -1.658866   -4.063806 O.3        1 UNL1     -0.3753
     52 C         2.2058   -2.572268   -0.426856 C.3        1 UNL1     -0.0564
     53 O         -0.897802   -1.913723   -1.230818 O.3        1 UNL1     -0.4608
     54 C         -1.886351   -1.021427   -0.907541 C.2        1 UNL1     0.3042
     55 O         -2.555468   -0.989602   0.1245 O.2        1 UNL1     -0.2512
     56 C         -2.093971   0.047216   -1.942727 C.3        1 UNL1     0.0332
     57 C         0.346839   -0.160138   -4.250569 C.3        1 UNL1     -0.0567
     58 C         6.265664   -3.916854   -1.520006 C.3        1 UNL1     0.0210
     59 C         3.590863   -1.057823   -4.596719 C.3        1 UNL1     0.0372
     60 C         4.03386   -2.335014   -2.539339 C.2        1 UNL1     -0.0208
     61 C         4.997951   -1.564252   -3.04451 C.2        1 UNL1     0.0882
     62 H         5.304539   1.286765   0.251399 H        1 UNL1     0.0365
     63 H         7.10656   1.162892   1.204082 H        1 UNL1     0.0576
     64 H         7.130129   2.873622   3.76721 H        1 UNL1     0.0615
     65 H         9.206243   0.914345   2.498807 H        1 UNL1     0.0622
     66 H         2.59689   -3.573715   -3.388383 H        1 UNL1     0.0645
     67 H         1.128407   -3.548924   -1.857648 H        1 UNL1     0.0362
     68 H         -0.144432   -2.194461   -3.024389 H        1 UNL1     0.0741
     69 H         -0.512923   0.376529   -2.494657 H        1 UNL1     0.0359
     70 H         1.166198   1.838813   -2.290233 H        1 UNL1     0.0600
     71 H         1.049049   1.98838   -0.129534 H        1 UNL1     0.0348
     72 H         3.465146   1.738624   -0.30882 H        1 UNL1     0.0602
     73 H         4.255205   -3.016667   -1.756009 H        1 UNL1     0.0628
     74 H         4.840857   -0.800253   -3.806655 H        1 UNL1     0.1022
     75 H         10.752771   2.7687   5.833101 H        1 UNL1     0.0279
     76 H         9.472293   1.887106   6.565539 H        1 UNL1     0.0279
     77 H         11.099281   1.148888   6.277026 H        1 UNL1     0.0279
     78 H         9.92125   -0.956497   5.584494 H        1 UNL1     0.1553
     79 H         7.982251   -0.57904   5.429459 H        1 UNL1     0.1484
     80 H         4.828282   -2.341999   4.253046 H        1 UNL1     0.0317
     81 H         6.407522   -3.113928   4.245833 H        1 UNL1     0.0317
     82 H         6.996199   -2.062123   6.44603 H        1 UNL1     0.0428
     83 H         5.533735   -3.019645   6.523831 H        1 UNL1     0.0428
     84 H         5.036054   1.193075   6.194534 H        1 UNL1     0.0428
     85 H         6.663806   0.615351   6.270569 H        1 UNL1     0.0428
     86 H         5.766135   1.172574   4.010361 H        1 UNL1     0.0317
     87 H         4.517284   0.018331   4.112562 H        1 UNL1     0.0317
     88 H         5.814513   -1.394281   8.447005 H        1 UNL1     0.0429
     89 H         4.962765   0.146925   8.32273 H        1 UNL1     0.0429
     90 H         3.09564   -1.00851   9.003493 H        1 UNL1     0.0308
     91 H         3.440466   -2.187407   6.20547 H        1 UNL1     0.0233
     92 H         2.079072   -2.663209   7.252234 H        1 UNL1     0.0233
     93 H         2.25826   -0.998836   6.740027 H        1 UNL1     0.0233
     94 H         3.300962   -3.701097   8.742212 H        1 UNL1     0.0233
     95 H         5.00839   -3.237978   8.809607 H        1 UNL1     0.0233
     96 H         3.909802   -2.775819   10.130026 H        1 UNL1     0.0233
     97 H         10.105696   -4.638882   -2.502238 H        1 UNL1     0.0280
     98 H         11.205537   -3.322796   -2.811201 H        1 UNL1     0.0280
     99 H         11.661487   -4.606373   -1.651774 H        1 UNL1     0.0280
     100 H         12.16515   -4.49808   0.549624 H        1 UNL1     0.2922
     101 H         5.97831   3.834095   0.177874 H        1 UNL1     0.0236
     102 H         4.225881   4.104647   0.526951 H        1 UNL1     0.0236
     103 H         4.743538   3.254791   -0.896169 H        1 UNL1     0.0236
     104 H         3.139426   3.384783   1.367261 H        1 UNL1     0.2098
     105 H         1.389552   -0.949594   0.422143 H        1 UNL1     0.0234
     106 H         0.70113   0.288433   1.510472 H        1 UNL1     0.0234
     107 H         -0.0   0.0   0.0 H        1 UNL1     0.0234
     108 H         2.920112   -0.230284   -2.748651 H        1 UNL1     0.2098
     109 H         2.278677   -1.574665   0.028326 H        1 UNL1     0.0234
     110 H         1.695049   -3.253154   0.262544 H        1 UNL1     0.0234
     111 H         3.233823   -2.956281   -0.467446 H        1 UNL1     0.0234
     112 H         -1.161805   0.597932   -2.101234 H        1 UNL1     0.0342
     113 H         -2.472343   -0.358363   -2.879842 H        1 UNL1     0.0342
     114 H         -2.842287   0.754844   -1.560037 H        1 UNL1     0.0342
     115 H         -0.543302   0.365608   -4.62263 H        1 UNL1     0.0234
     116 H         1.217643   0.2836   -4.737238 H        1 UNL1     0.0234
     117 H         0.194004   -1.166309   -4.677422 H        1 UNL1     0.0234
     118 H         5.750244   -4.343246   -2.398378 H        1 UNL1     0.0309
     119 H         6.996403   -4.641426   -1.146883 H        1 UNL1     0.0309
     120 H         5.475179   -3.866274   -0.763249 H        1 UNL1     0.0309
     121 H         4.178342   -0.684466   -3.758369 H        1 UNL1     0.0524
     122 H         4.217463   -1.780544   -5.14543 H        1 UNL1     0.0524
     123 H         3.328196   -0.241383   -5.263447 H        1 UNL1     0.0524
@<TRIPOS>BOND
     1     1     2    1
     2     1    42    1
     3     2     3    2
     4     3     4    1
     5     4     5    2
     6     5     7    1
     7     6    75    1
     8     6    76    1
     9     6    77    1
    10     7     9   am
    11     9    10    1
    12    10    11    2
    13    10    43    1
    14    11    14    1
    15    11    15    1
    16    12    13   ar
    17    12    27   ar
    18    12    43    1
    19    13    14    1
    20    13    30   ar
    21    14    17    2
    22    15    16    1
    23    16    17    1
    24    16    18    1
    25    16    22    1
    26    18    19    1
    27    19    20    1
    28    20    21    1
    29    21    22    1
    30    23    24    1
    31    23    88    1
    32    23    89    1
    33    24    25    1
    34    24    26    1
    35    24    90    1
    36    25    91    1
    37    25    92    1
    38    25    93    1
    39    26    94    1
    40    26    95    1
    41    26    96    1
    42    27    28   ar
    43    28    29   ar
    44    29    30   ar
    45    29    31    1
    46    30    33    1
    47    31    32    1
    48    32    33    1
    49    32    35    1
    50    34    97    1
    51    34    98    1
    52    34    99    1
    53    35    61    1
    54    36    37    1
    55    36    60    1
    56    37    38    1
    57    38    39    1
    58    39    40    1
    59    40    41    1
    60    41    42    1
    61    45   100    1
    62    47   101    1
    63    47   102    1
    64    47   103    1
    65    48   104    1
    66    49   105    1
    67    49   106    1
    68    49   107    1
    69    50   108    1
    70    51    59    1
    71    52   109    1
    72    52   110    1
    73    52   111    1
    74    53    54    1
    75    54    55    2
    76    54    56    1
    77    56   112    1
    78    56   113    1
    79    56   114    1
    80    57   115    1
    81    57   116    1
    82    57   117    1
    83    58   118    1
    84    58   119    1
    85    58   120    1
    86    59   121    1
    87    59   122    1
    88    59   123    1
    89    60    61    2
    90     1    47    1
    91     1    62    1
    92     2    63    1
    93     3    64    1
    94     4    65    1
    95     5     6    1
    96     7     8    2
    97     9    78    1
    98    15    79    1
    99    18    80    1
   100    18    81    1
   101    19    82    1
   102    19    83    1
   103    20    23    1
   104    21    84    1
   105    21    85    1
   106    22    86    1
   107    22    87    1
   108    27    45    1
   109    28    34    1
   110    32    58    1
   111    33    46    2
   112    36    51    1
   113    36    66    1
   114    37    52    1
   115    37    67    1
   116    38    53    1
   117    38    68    1
   118    42    48    1
   119    42    72    1
   120    43    44    2
   121    60    73    1
   122    61    74    1
   123    39    69    1
   124    39    57    1
   125    40    70    1
   126    40    50    1
   127    41    71    1
   128    41    49    1
