@<TRIPOS>MOLECULE
*****
 123 128 0 0 0
SMALL
GASTEIGER

@<TRIPOS>ATOM
     1 C         3.868905   3.676053   0.71982 C.3        1 UNL1     0.0009
     2 C         4.519824   5.282598   0.062281 C.2        1 UNL1     -0.0787
     3 C         5.546072   6.032591   -0.630807 C.2        1 UNL1     -0.0649
     4 C         5.516568   7.663875   -1.082913 C.2        1 UNL1     -0.0542
     5 C         6.07733   8.640908   -1.942001 C.2        1 UNL1     0.0115
     6 C         7.224257   8.915653   -2.953136 C.3        1 UNL1     -0.0348
     7 C         5.284533   10.017121   -2.175449 C.2        1 UNL1     0.2441
     8 O         5.594916   11.065267   -1.626288 O.2        1 UNL1     -0.2702
     9 N         4.376033   9.998833   -3.248037 N.am        1 UNL1     -0.2772
     10 C         3.145047   9.550724   -2.827093 C.2        1 UNL1     0.1049
     11 C         2.9937   8.240348   -2.762066 C.2        1 UNL1     0.0801
     12 C         1.417421   9.877267   -1.047764 C.ar        1 UNL1     0.0753
     13 C         1.444101   8.457177   -0.871017 C.ar        1 UNL1     0.0305
     14 C         2.136962   7.581685   -1.813625 C.2        1 UNL1     0.0924
     15 N         3.774959   7.255858   -3.238451 N.pl3        1 UNL1     -0.3170
     16 C         3.075575   6.011957   -3.054532 C.3        1 UNL1     0.1275
     17 N         2.182495   6.25334   -1.862112 N.2        1 UNL1     -0.2557
     18 C         2.145733   5.83482   -4.251077 C.3        1 UNL1     0.0016
     19 C         2.972852   5.90763   -5.524718 C.3        1 UNL1     0.0026
     20 N         3.983384   4.859578   -5.48677 N.3        1 UNL1     -0.3018
     21 C         4.888337   4.909835   -4.336594 C.3        1 UNL1     0.0026
     22 C         4.036748   4.830643   -3.06836 C.3        1 UNL1     0.0016
     23 C         4.62526   4.648401   -6.768972 C.3        1 UNL1     0.0012
     24 C         3.64666   4.000267   -7.76095 C.3        1 UNL1     -0.0339
     25 C         4.370982   3.041742   -8.720454 C.3        1 UNL1     -0.0615
     26 C         2.529768   3.298906   -7.007675 C.3        1 UNL1     -0.0615
     27 C         0.655751   10.694003   -0.215346 C.ar        1 UNL1     0.1347
     28 C         -0.147871   10.204063   0.798657 C.ar        1 UNL1     0.0342
     29 C         -0.067755   8.807677   0.985345 C.ar        1 UNL1     0.1435
     30 C         0.718863   7.980823   0.182373 C.ar        1 UNL1     0.0774
     31 O         -0.873125   8.166235   1.859953 O.3        1 UNL1     -0.4436
     32 C         -0.846273   6.794165   1.438556 C.3        1 UNL1     0.3143
     33 C         0.447707   6.642683   0.664682 C.2        1 UNL1     0.2504
     34 C         -1.178578   10.987186   1.563157 C.3        1 UNL1     -0.0327
     35 O         -0.724078   5.98881   2.617422 O.2        1 UNL1     -0.4528
     36 C         -2.473768   2.714433   1.826768 C.3        1 UNL1     0.0854
     37 C         -2.194828   1.692573   0.658214 C.3        1 UNL1     0.0236
     38 C         -1.915314   0.185715   1.130438 C.3        1 UNL1     0.1131
     39 C         -0.836953   -0.098232   2.252392 C.3        1 UNL1     0.0200
     40 C         0.635243   0.685624   2.226979 C.3        1 UNL1     0.0661
     41 C         1.67224   0.809171   0.890198 C.3        1 UNL1     0.0091
     42 C         2.82604   2.148115   0.398892 C.3        1 UNL1     0.0661
     43 C         2.157216   10.44345   -2.202927 C.2        1 UNL1     0.2131
     44 O         1.911803   11.531496   -2.691461 O.2        1 UNL1     -0.2851
     45 O         0.720982   12.069783   -0.426088 O.3        1 UNL1     -0.5056
     46 O         1.11605   5.646379   0.501742 O.2        1 UNL1     -0.2836
     47 C         4.638263   3.268028   2.00496 C.3        1 UNL1     -0.0566
     48 O         3.958613   1.229205   0.130565 O.3        1 UNL1     -0.3909
     49 C         0.915555   0.400207   -0.353856 C.3        1 UNL1     -0.0577
     50 O         0.55147   1.930942   2.890219 O.3        1 UNL1     -0.3910
     51 O         -2.27321   2.225455   3.133714 O.3        1 UNL1     -0.3753
     52 C         -1.405656   2.35499   -0.51795 C.3        1 UNL1     -0.0564
     53 O         -2.002435   -0.818139   0.018227 O.3        1 UNL1     -0.4608
     54 C         -1.679621   -2.146157   0.118675 C.2        1 UNL1     0.3042
     55 O         -0.656281   -2.698493   -0.283245 O.2        1 UNL1     -0.2512
     56 C         -2.702014   -2.959136   0.860625 C.3        1 UNL1     0.0332
     57 C         -1.608323   -0.190169   3.650501 C.3        1 UNL1     -0.0567
     58 C         -2.034   6.612257   0.465035 C.3        1 UNL1     0.0210
     59 C         -3.049206   2.872281   4.141341 C.3        1 UNL1     0.0372
     60 C         -1.728472   3.999088   1.730029 C.2        1 UNL1     -0.0208
     61 C         -1.067342   4.687199   2.661777 C.2        1 UNL1     0.0882
     62 H         2.963789   4.19995   1.049985 H        1 UNL1     0.0365
     63 H         3.755925   5.974626   0.42287 H        1 UNL1     0.0576
     64 H         6.407134   5.538417   -1.086298 H        1 UNL1     0.0615
     65 H         4.676528   8.075935   -0.517209 H        1 UNL1     0.0622
     66 H         -3.536403   2.973708   1.718923 H        1 UNL1     0.0645
     67 H         -3.171804   1.587298   0.155229 H        1 UNL1     0.0362
     68 H         -2.88654   -0.044868   1.594199 H        1 UNL1     0.0741
     69 H         -0.551415   -1.14064   2.204825 H        1 UNL1     0.0359
     70 H         1.206834   0.040382   2.921246 H        1 UNL1     0.0600
     71 H         2.31077   -0.080245   1.058054 H        1 UNL1     0.0348
     72 H         2.623318   2.29998   1.469012 H        1 UNL1     0.0602
     73 H         -1.886149   4.422854   0.7694 H        1 UNL1     0.0628
     74 H         -0.813773   4.301122   3.649646 H        1 UNL1     0.1022
     75 H         8.20293   8.573356   -2.538327 H        1 UNL1     0.0279
     76 H         7.172956   8.384586   -3.900979 H        1 UNL1     0.0279
     77 H         7.414272   9.989074   -3.099303 H        1 UNL1     0.0279
     78 H         4.706748   9.356998   -3.9655 H        1 UNL1     0.1553
     79 H         4.466844   7.390146   -3.95273 H        1 UNL1     0.1484
     80 H         1.629628   4.871139   -4.163215 H        1 UNL1     0.0317
     81 H         1.368781   6.606771   -4.260508 H        1 UNL1     0.0317
     82 H         3.434125   6.89772   -5.654569 H        1 UNL1     0.0428
     83 H         2.290072   5.780784   -6.365416 H        1 UNL1     0.0428
     84 H         5.585273   4.067286   -4.289672 H        1 UNL1     0.0428
     85 H         5.540164   5.793846   -4.367634 H        1 UNL1     0.0428
     86 H         4.734121   4.735815   -2.256778 H        1 UNL1     0.0317
     87 H         3.488298   3.881061   -3.043971 H        1 UNL1     0.0317
     88 H         4.927445   5.626781   -7.164891 H        1 UNL1     0.0429
     89 H         5.538145   4.048097   -6.663854 H        1 UNL1     0.0429
     90 H         3.161725   4.785944   -8.352357 H        1 UNL1     0.0308
     91 H         5.433702   3.288772   -8.802329 H        1 UNL1     0.0233
     92 H         4.268098   2.007453   -8.383898 H        1 UNL1     0.0233
     93 H         3.95739   3.075542   -9.735655 H        1 UNL1     0.0233
     94 H         2.067976   2.534799   -7.642281 H        1 UNL1     0.0233
     95 H         2.932076   2.802111   -6.120373 H        1 UNL1     0.0233
     96 H         1.754265   4.004271   -6.696188 H        1 UNL1     0.0233
     97 H         -2.06494   11.184243   0.967539 H        1 UNL1     0.0280
     98 H         -1.528724   10.450535   2.454594 H        1 UNL1     0.0280
     99 H         -0.750543   11.953644   1.875951 H        1 UNL1     0.0280
     100 H         0.225961   12.37654   -1.165329 H        1 UNL1     0.2922
     101 H         4.016225   3.453495   2.88036 H        1 UNL1     0.0236
     102 H         5.614903   3.743515   2.089045 H        1 UNL1     0.0236
     103 H         4.848963   2.185963   2.035532 H        1 UNL1     0.0236
     104 H         3.592071   0.327853   0.040104 H        1 UNL1     0.2098
     105 H         0.681718   1.220859   -1.027401 H        1 UNL1     0.0234
     106 H         1.360997   -0.426886   -0.906508 H        1 UNL1     0.0234
     107 H         0.0   -0.0   0.0 H        1 UNL1     0.0234
     108 H         1.047583   1.847748   3.727309 H        1 UNL1     0.2098
     109 H         -1.326904   3.445197   -0.404115 H        1 UNL1     0.0234
     110 H         -0.406926   1.928354   -0.660295 H        1 UNL1     0.0234
     111 H         -1.904652   2.192133   -1.482536 H        1 UNL1     0.0234
     112 H         -2.374768   -4.001425   0.923005 H        1 UNL1     0.0342
     113 H         -2.907454   -2.554221   1.850414 H        1 UNL1     0.0342
     114 H         -3.640301   -2.93435   0.289514 H        1 UNL1     0.0342
     115 H         -1.142415   -0.920091   4.326765 H        1 UNL1     0.0234
     116 H         -1.67195   0.759337   4.185701 H        1 UNL1     0.0234
     117 H         -2.628832   -0.601224   3.563691 H        1 UNL1     0.0234
     118 H         -2.86787   6.055875   0.927751 H        1 UNL1     0.0309
     119 H         -2.412384   7.55925   0.067253 H        1 UNL1     0.0309
     120 H         -1.77408   5.999982   -0.405406 H        1 UNL1     0.0309
     121 H         -2.515413   2.768885   5.085656 H        1 UNL1     0.0524
     122 H         -3.172948   3.950558   3.94629 H        1 UNL1     0.0524
     123 H         -4.030603   2.412072   4.213182 H        1 UNL1     0.0524
@<TRIPOS>BOND
     1     1     2    1
     2     1    42    1
     3     2     3    2
     4     3     4    1
     5     4     5    2
     6     5     7    1
     7     6    75    1
     8     6    76    1
     9     6    77    1
    10     7     9   am
    11     9    10    1
    12    10    11    2
    13    10    43    1
    14    11    14    1
    15    11    15    1
    16    12    13   ar
    17    12    27   ar
    18    12    43    1
    19    13    14    1
    20    13    30   ar
    21    14    17    2
    22    15    16    1
    23    16    17    1
    24    16    18    1
    25    16    22    1
    26    18    19    1
    27    19    20    1
    28    20    21    1
    29    21    22    1
    30    23    24    1
    31    23    88    1
    32    23    89    1
    33    24    25    1
    34    24    26    1
    35    24    90    1
    36    25    91    1
    37    25    92    1
    38    25    93    1
    39    26    94    1
    40    26    95    1
    41    26    96    1
    42    27    28   ar
    43    28    29   ar
    44    29    30   ar
    45    29    31    1
    46    30    33    1
    47    31    32    1
    48    32    33    1
    49    32    35    1
    50    34    97    1
    51    34    98    1
    52    34    99    1
    53    35    61    1
    54    36    37    1
    55    36    60    1
    56    37    38    1
    57    38    39    1
    58    39    40    1
    59    40    41    1
    60    41    42    1
    61    45   100    1
    62    47   101    1
    63    47   102    1
    64    47   103    1
    65    48   104    1
    66    49   105    1
    67    49   106    1
    68    49   107    1
    69    50   108    1
    70    51    59    1
    71    52   109    1
    72    52   110    1
    73    52   111    1
    74    53    54    1
    75    54    55    2
    76    54    56    1
    77    56   112    1
    78    56   113    1
    79    56   114    1
    80    57   115    1
    81    57   116    1
    82    57   117    1
    83    58   118    1
    84    58   119    1
    85    58   120    1
    86    59   121    1
    87    59   122    1
    88    59   123    1
    89    60    61    2
    90     1    47    1
    91     1    62    1
    92     2    63    1
    93     3    64    1
    94     4    65    1
    95     5     6    1
    96     7     8    2
    97     9    78    1
    98    15    79    1
    99    18    80    1
   100    18    81    1
   101    19    82    1
   102    19    83    1
   103    20    23    1
   104    21    84    1
   105    21    85    1
   106    22    86    1
   107    22    87    1
   108    27    45    1
   109    28    34    1
   110    32    58    1
   111    33    46    2
   112    36    51    1
   113    36    66    1
   114    37    52    1
   115    37    67    1
   116    38    53    1
   117    38    68    1
   118    42    48    1
   119    42    72    1
   120    43    44    2
   121    60    73    1
   122    61    74    1
   123    39    69    1
   124    39    57    1
   125    40    70    1
   126    40    50    1
   127    41    71    1
   128    41    49    1
