@<TRIPOS>MOLECULE
*****
 123 128 0 0 0
SMALL
GASTEIGER

@<TRIPOS>ATOM
     1 C         4.603053   2.831498   0.676037 C.3        1 UNL1     0.0009
     2 C         5.638715   4.208552   -0.008189 C.2        1 UNL1     -0.0787
     3 C         6.822212   4.661642   -0.708255 C.2        1 UNL1     -0.0649
     4 C         7.205099   6.238062   -1.192664 C.2        1 UNL1     -0.0542
     5 C         7.99558   7.024427   -2.066647 C.2        1 UNL1     0.0115
     6 C         9.177026   6.980631   -3.074413 C.3        1 UNL1     -0.0348
     7 C         7.57506   8.550581   -2.333115 C.2        1 UNL1     0.2441
     8 O         8.13792   9.498259   -1.802436 O.2        1 UNL1     -0.2702
     9 N         6.693614   8.73887   -3.411888 N.am        1 UNL1     -0.2772
     10 C         5.388534   8.623676   -2.99139 C.2        1 UNL1     0.1049
     11 C         4.912227   7.395139   -2.901657 C.2        1 UNL1     0.0801
     12 C         3.79461   9.411449   -1.231801 C.ar        1 UNL1     0.0753
     13 C         3.462748   8.034321   -1.026878 C.ar        1 UNL1     0.0305
     14 C         3.915189   6.99315   -1.94683 C.2        1 UNL1     0.0924
     15 N         5.421743   6.236044   -3.352678 N.pl3        1 UNL1     -0.3170
     16 C         4.431486   5.212152   -3.149483 C.3        1 UNL1     0.1275
     17 N         3.625165   5.695332   -1.96876 N.2        1 UNL1     -0.2557
     18 C         3.489701   5.249501   -4.349211 C.3        1 UNL1     0.0016
     19 C         4.311414   5.085229   -5.617829 C.3        1 UNL1     0.0026
     20 N         5.02567   3.817756   -5.551665 N.3        1 UNL1     -0.3018
     21 C         5.911551   3.662921   -4.39598 C.3        1 UNL1     0.0026
     22 C         5.064561   3.827057   -3.132825 C.3        1 UNL1     0.0016
     23 C         5.596671   3.425097   -6.824623 C.3        1 UNL1     0.0012
     24 C         4.489003   3.01907   -7.809493 C.3        1 UNL1     -0.0339
     25 C         4.088585   4.191526   -8.720027 C.3        1 UNL1     -0.0615
     26 C         4.92727   1.809164   -8.616233 C.3        1 UNL1     -0.0615
     27 C         3.261042   10.410761   -0.421369 C.ar        1 UNL1     0.1347
     28 C         2.35771   10.160049   0.596072 C.ar        1 UNL1     0.0342
     29 C         2.083506   8.792628   0.810866 C.ar        1 UNL1     0.1435
     30 C         2.638608   7.777869   0.03026 C.ar        1 UNL1     0.0774
     31 O         1.140682   8.392834   1.691919 O.3        1 UNL1     -0.4436
     32 C         0.822423   7.049584   1.297886 C.3        1 UNL1     0.3143
     33 C         2.038418   6.56135   0.536836 C.2        1 UNL1     0.2504
     34 C         1.555456   11.193071   1.337255 C.3        1 UNL1     -0.0327
     35 O         0.735396   6.26429   2.49329 O.2        1 UNL1     -0.4528
     36 C         -1.780024   3.519347   1.754343 C.3        1 UNL1     0.0854
     37 C         -1.764502   2.435904   0.608292 C.3        1 UNL1     0.0236
     38 C         -1.874164   0.917428   1.112226 C.3        1 UNL1     0.1131
     39 C         -0.904472   0.395003   2.247585 C.3        1 UNL1     0.0200
     40 C         0.717634   0.78271   2.217708 C.3        1 UNL1     0.0661
     41 C         1.755383   0.613426   0.886531 C.3        1 UNL1     0.0091
     42 C         3.210045   1.608556   0.377536 C.3        1 UNL1     0.0661
     43 C         4.655669   9.749027   -2.392352 C.2        1 UNL1     0.2131
     44 O         4.693001   10.853329   -2.904076 O.2        1 UNL1     -0.2851
     45 O         3.670787   11.721185   -0.658719 O.3        1 UNL1     -0.5056
     46 O         2.434967   5.425794   0.398578 O.2        1 UNL1     -0.2836
     47 C         5.242095   2.270145   1.974686 C.3        1 UNL1     -0.0566
     48 O         4.075602   0.42893   0.135856 O.3        1 UNL1     -0.3909
     49 C         0.922964   0.381908   -0.354828 C.3        1 UNL1     -0.0577
     50 O         0.948366   2.022698   2.855607 O.3        1 UNL1     -0.3910
     51 O         -1.711901   3.023167   3.072143 O.3        1 UNL1     -0.3753
     52 C         -0.831396   2.853742   -0.574785 C.3        1 UNL1     -0.0564
     53 O         -2.208524   -0.05535   0.019417 O.3        1 UNL1     -0.4608
     54 C         -1.986304   -1.406899   0.062573 C.2        1 UNL1     0.3042
     55 O         -1.180496   -2.053028   -0.60603 O.2        1 UNL1     -0.2512
     56 C         -2.807886   -2.118646   1.099459 C.3        1 UNL1     0.0332
     57 C         -1.677324   0.529356   3.641437 C.3        1 UNL1     -0.0567
     58 C         -0.370658   7.151849   0.3193 C.3        1 UNL1     0.0210
     59 C         -2.337224   3.84633   4.055626 C.3        1 UNL1     0.0372
     60 C         -0.735276   4.572956   1.637848 C.2        1 UNL1     -0.0208
     61 C         0.075599   5.092067   2.560751 C.2        1 UNL1     0.0882
     62 H         3.858114   3.572991   0.989034 H        1 UNL1     0.0365
     63 H         5.072682   5.077857   0.332962 H        1 UNL1     0.0576
     64 H         7.532275   3.95736   -1.147465 H        1 UNL1     0.0615
     65 H         6.494472   6.859913   -0.641487 H        1 UNL1     0.0622
     66 H         -2.742999   4.035212   1.633471 H        1 UNL1     0.0645
     67 H         -2.735397   2.569187   0.1002 H        1 UNL1     0.0362
     68 H         -2.873209   0.948289   1.57318 H        1 UNL1     0.0741
     69 H         -0.890274   -0.686472   2.222727 H        1 UNL1     0.0359
     70 H         1.106927   0.029163   2.928819 H        1 UNL1     0.0600
     71 H         2.149221   -0.404266   1.076665 H        1 UNL1     0.0348
     72 H         3.04963   1.828933   1.442908 H        1 UNL1     0.0602
     73 H         -0.779089   5.002513   0.667895 H        1 UNL1     0.0628
     74 H         0.22164   4.675434   3.557909 H        1 UNL1     0.1022
     75 H         9.572441   5.940654   -3.169955 H        1 UNL1     0.0279
     76 H         8.945169   7.238724   -4.105287 H        1 UNL1     0.0279
     77 H         10.065533   7.517923   -2.711683 H        1 UNL1     0.0279
     78 H         6.853834   8.019591   -4.114059 H        1 UNL1     0.1553
     79 H         6.126775   6.177003   -4.06428 H        1 UNL1     0.1484
     80 H         2.747545   4.448651   -4.246211 H        1 UNL1     0.0317
     81 H         2.93198   6.191664   -4.379672 H        1 UNL1     0.0317
     82 H         5.007241   5.924543   -5.763739 H        1 UNL1     0.0428
     83 H         3.62059   5.116571   -6.460936 H        1 UNL1     0.0428
     84 H         6.373983   2.673354   -4.327241 H        1 UNL1     0.0428
     85 H         6.76489   4.353739   -4.439585 H        1 UNL1     0.0428
     86 H         5.713804   3.576936   -2.314344 H        1 UNL1     0.0317
     87 H         4.294792   3.046654   -3.093803 H        1 UNL1     0.0317
     88 H         6.133516   4.288459   -7.238989 H        1 UNL1     0.0429
     89 H         6.331198   2.618972   -6.700502 H        1 UNL1     0.0429
     90 H         3.605797   2.698359   -7.244423 H        1 UNL1     0.0308
     91 H         4.947393   4.56923   -9.282957 H        1 UNL1     0.0233
     92 H         3.306638   3.88756   -9.419864 H        1 UNL1     0.0233
     93 H         3.68098   5.038658   -8.155172 H        1 UNL1     0.0233
     94 H         4.230045   1.633465   -9.442576 H        1 UNL1     0.0233
     95 H         5.918813   1.983958   -9.043143 H        1 UNL1     0.0233
     96 H         4.963316   0.908445   -7.997061 H        1 UNL1     0.0233
     97 H         0.886971   10.744144   2.065831 H        1 UNL1     0.0280
     98 H         2.193349   11.885879   1.901496 H        1 UNL1     0.0280
     99 H         0.948498   11.77196   0.622004 H        1 UNL1     0.0280
     100 H         2.968444   12.331849   -0.798098 H        1 UNL1     0.2922
     101 H         4.604892   1.489933   2.390495 H        1 UNL1     0.0236
     102 H         5.473561   3.042738   2.707152 H        1 UNL1     0.0236
     103 H         6.205524   1.770222   1.779559 H        1 UNL1     0.0236
     104 H         4.593787   0.271694   0.949325 H        1 UNL1     0.2098
     105 H         0.712488   1.280991   -0.928553 H        1 UNL1     0.0234
     106 H         1.292382   -0.406652   -1.010291 H        1 UNL1     0.0234
     107 H         0.0   -0.0   0.0 H        1 UNL1     0.0234
     108 H         0.49233   2.70834   2.330542 H        1 UNL1     0.2098
     109 H         0.210286   2.993365   -0.253667 H        1 UNL1     0.0234
     110 H         -0.864583   2.154107   -1.416896 H        1 UNL1     0.0234
     111 H         -1.138375   3.812678   -1.013136 H        1 UNL1     0.0234
     112 H         -2.580787   -3.18894   1.083903 H        1 UNL1     0.0342
     113 H         -2.660866   -1.702474   2.094964 H        1 UNL1     0.0342
     114 H         -3.868547   -1.99563   0.840557 H        1 UNL1     0.0342
     115 H         -2.598263   -0.069654   3.657178 H        1 UNL1     0.0234
     116 H         -1.081725   0.238746   4.50911 H        1 UNL1     0.0234
     117 H         -2.077866   1.540893   3.826641 H        1 UNL1     0.0234
     118 H         -1.335938   7.231501   0.849295 H        1 UNL1     0.0309
     119 H         -0.278748   7.985067   -0.384621 H        1 UNL1     0.0309
     120 H         -0.491613   6.250648   -0.291693 H        1 UNL1     0.0309
     121 H         -1.817117   4.80382   4.063233 H        1 UNL1     0.0524
     122 H         -3.396384   4.045727   3.82226 H        1 UNL1     0.0524
     123 H         -2.273852   3.377565   5.033551 H        1 UNL1     0.0524
@<TRIPOS>BOND
     1     1     2    1
     2     1    42    1
     3     2     3    2
     4     3     4    1
     5     4     5    2
     6     5     7    1
     7     6    75    1
     8     6    76    1
     9     6    77    1
    10     7     9   am
    11     9    10    1
    12    10    11    2
    13    10    43    1
    14    11    14    1
    15    11    15    1
    16    12    13   ar
    17    12    27   ar
    18    12    43    1
    19    13    14    1
    20    13    30   ar
    21    14    17    2
    22    15    16    1
    23    16    17    1
    24    16    18    1
    25    16    22    1
    26    18    19    1
    27    19    20    1
    28    20    21    1
    29    21    22    1
    30    23    24    1
    31    23    88    1
    32    23    89    1
    33    24    25    1
    34    24    26    1
    35    24    90    1
    36    25    91    1
    37    25    92    1
    38    25    93    1
    39    26    94    1
    40    26    95    1
    41    26    96    1
    42    27    28   ar
    43    28    29   ar
    44    29    30   ar
    45    29    31    1
    46    30    33    1
    47    31    32    1
    48    32    33    1
    49    32    35    1
    50    34    97    1
    51    34    98    1
    52    34    99    1
    53    35    61    1
    54    36    37    1
    55    36    60    1
    56    37    38    1
    57    38    39    1
    58    39    40    1
    59    40    41    1
    60    41    42    1
    61    45   100    1
    62    47   101    1
    63    47   102    1
    64    47   103    1
    65    48   104    1
    66    49   105    1
    67    49   106    1
    68    49   107    1
    69    50   108    1
    70    51    59    1
    71    52   109    1
    72    52   110    1
    73    52   111    1
    74    53    54    1
    75    54    55    2
    76    54    56    1
    77    56   112    1
    78    56   113    1
    79    56   114    1
    80    57   115    1
    81    57   116    1
    82    57   117    1
    83    58   118    1
    84    58   119    1
    85    58   120    1
    86    59   121    1
    87    59   122    1
    88    59   123    1
    89    60    61    2
    90     1    47    1
    91     1    62    1
    92     2    63    1
    93     3    64    1
    94     4    65    1
    95     5     6    1
    96     7     8    2
    97     9    78    1
    98    15    79    1
    99    18    80    1
   100    18    81    1
   101    19    82    1
   102    19    83    1
   103    20    23    1
   104    21    84    1
   105    21    85    1
   106    22    86    1
   107    22    87    1
   108    27    45    1
   109    28    34    1
   110    32    58    1
   111    33    46    2
   112    36    51    1
   113    36    66    1
   114    37    52    1
   115    37    67    1
   116    38    53    1
   117    38    68    1
   118    42    48    1
   119    42    72    1
   120    43    44    2
   121    60    73    1
   122    61    74    1
   123    39    69    1
   124    39    57    1
   125    40    70    1
   126    40    50    1
   127    41    71    1
   128    41    49    1
