@<TRIPOS>MOLECULE
*****
 123 128 0 0 0
SMALL
GASTEIGER

@<TRIPOS>ATOM
     1 C         5.058901   2.037733   0.513574 C.3        1 UNL1     0.0009
     2 C         6.412549   3.001249   -0.308806 C.2        1 UNL1     -0.0787
     3 C         7.686934   3.042337   -0.994593 C.2        1 UNL1     -0.0649
     4 C         8.450629   4.382817   -1.691902 C.2        1 UNL1     -0.0542
     5 C         9.428389   4.806533   -2.625458 C.2        1 UNL1     0.0115
     6 C         10.588238   4.321231   -3.537904 C.3        1 UNL1     -0.0348
     7 C         9.395296   6.323112   -3.150703 C.2        1 UNL1     0.2441
     8 O         10.157343   7.186815   -2.738603 O.2        1 UNL1     -0.2702
     9 N         8.611629   6.531762   -4.298956 N.am        1 UNL1     -0.2772
     10 C         7.307603   6.796674   -3.948728 C.2        1 UNL1     0.1049
     11 C         6.546773   5.746144   -3.700239 C.2        1 UNL1     0.0801
     12 C         5.909101   8.215599   -2.436055 C.ar        1 UNL1     0.0753
     13 C         5.249752   7.007906   -2.041917 C.ar        1 UNL1     0.0305
     14 C         5.459475   5.752421   -2.759431 C.2        1 UNL1     0.0924
     15 N         6.772102   4.441802   -3.933574 N.pl3        1 UNL1     -0.3170
     16 C         5.559349   3.726494   -3.637231 C.3        1 UNL1     0.1275
     17 N         4.865326   4.57342   -2.598592 N.2        1 UNL1     -0.2557
     18 C         4.683619   3.784692   -4.885195 C.3        1 UNL1     0.0016
     19 C         5.471682   3.225154   -6.058849 C.3        1 UNL1     0.0026
     20 N         5.857011   1.854473   -5.752607 N.3        1 UNL1     -0.3018
     21 C         6.651205   1.689544   -4.533417 C.3        1 UNL1     0.0026
     22 C         5.838718   2.253971   -3.366719 C.3        1 UNL1     0.0016
     23 C         6.34682   1.134164   -6.911004 C.3        1 UNL1     0.0012
     24 C         5.198729   0.845802   -7.891051 C.3        1 UNL1     -0.0339
     25 C         5.125005   1.908967   -8.999338 C.3        1 UNL1     -0.0615
     26 C         5.343908   -0.552303   -8.466382 C.3        1 UNL1     -0.0615
     27 C         5.613206   9.431892   -1.825158 C.ar        1 UNL1     0.1347
     28 C         4.651828   9.571486   -0.840111 C.ar        1 UNL1     0.0342
     29 C         4.05052   8.361215   -0.434111 C.ar        1 UNL1     0.1435
     30 C         4.362858   7.130006   -1.011856 C.ar        1 UNL1     0.0774
     31 O         3.018124   8.344702   0.437034 O.3        1 UNL1     -0.4436
     32 C         2.394579   7.067304   0.236243 C.3        1 UNL1     0.3143
     33 C         3.474705   6.188896   -0.362038 C.2        1 UNL1     0.2504
     34 C         4.105082   10.871587   -0.319623 C.3        1 UNL1     -0.0327
     35 O         2.09177   6.532903   1.530837 O.2        1 UNL1     -0.4528
     36 C         -0.993376   4.370469   1.068408 C.3        1 UNL1     0.0854
     37 C         -1.212276   3.139497   0.106996 C.3        1 UNL1     0.0236
     38 C         -1.69739   1.793738   0.831799 C.3        1 UNL1     0.1131
     39 C         -0.910144   1.253655   2.093078 C.3        1 UNL1     0.0200
     40 C         0.757816   1.240081   2.105802 C.3        1 UNL1     0.0661
     41 C         1.755757   0.614787   0.884846 C.3        1 UNL1     0.0091
     42 C         3.419462   1.143196   0.320689 C.3        1 UNL1     0.0661
     43 C         6.853887   8.145481   -3.5783 C.2        1 UNL1     0.2131
     44 O         7.169031   9.110114   -4.251281 O.2        1 UNL1     -0.2851
     45 O         6.332788   10.552075   -2.236047 O.3        1 UNL1     -0.5056
     46 O         3.588591   4.985255   -0.297755 O.2        1 UNL1     -0.2836
     47 C         5.512045   1.564811   1.921049 C.3        1 UNL1     -0.0566
     48 O         3.980193   -0.229645   0.319352 O.3        1 UNL1     -0.3909
     49 C         0.922219   0.382901   -0.355693 C.3        1 UNL1     -0.0577
     50 O         1.265646   2.479358   2.557493 O.3        1 UNL1     -0.3910
     51 O         -1.07882   4.096917   2.448734 O.3        1 UNL1     -0.3753
     52 C         -0.177675   3.125667   -1.065335 C.3        1 UNL1     -0.0564
     53 O         -2.230284   0.759563   -0.116268 O.3        1 UNL1     -0.4608
     54 C         -2.342033   -0.58018   0.14931 C.2        1 UNL1     0.3042
     55 O         -1.700184   -1.498469   -0.359231 O.2        1 UNL1     -0.2512
     56 C         -3.335875   -0.898206   1.229981 C.3        1 UNL1     0.0332
     57 C         -1.661046   1.793776   3.397911 C.3        1 UNL1     -0.0567
     58 C         1.285407   7.283114   -0.819548 C.3        1 UNL1     0.0210
     59 C         -1.502866   5.196823   3.252636 C.3        1 UNL1     0.0372
     60 C         0.277325   5.115805   0.856384 C.2        1 UNL1     -0.0208
     61 C         1.167065   5.575635   1.737101 C.2        1 UNL1     0.0882
     62 H         4.507691   2.974358   0.660586 H        1 UNL1     0.0365
     63 H         6.065078   4.023056   -0.142538 H        1 UNL1     0.0576
     64 H         8.216334   2.128676   -1.273996 H        1 UNL1     0.0615
     65 H         7.898084   5.236141   -1.289391 H        1 UNL1     0.0622
     66 H         -1.800127   5.070331   0.80881 H        1 UNL1     0.0645
     67 H         -2.109745   3.410711   -0.475715 H        1 UNL1     0.0362
     68 H         -2.670239   2.133554   1.218597 H        1 UNL1     0.0741
     69 H         -1.15686   0.210149   2.236726 H        1 UNL1     0.0359
     70 H         0.936427   0.544464   2.947987 H        1 UNL1     0.0600
     71 H         1.887557   -0.421039   1.254509 H        1 UNL1     0.0348
     72 H         3.291379   1.567953   1.326916 H        1 UNL1     0.0602
     73 H         0.36189   5.377314   -0.169145 H        1 UNL1     0.0628
     74 H         1.184139   5.307049   2.793893 H        1 UNL1     0.1022
     75 H         10.72307   3.216481   -3.446359 H        1 UNL1     0.0279
     76 H         10.45045   4.452468   -4.608819 H        1 UNL1     0.0279
     77 H         11.571173   4.687724   -3.207416 H        1 UNL1     0.0279
     78 H         8.610328   5.689111   -4.869933 H        1 UNL1     0.1553
     79 H         7.458956   4.102459   -4.581657 H        1 UNL1     0.1484
     80 H         3.767816   3.208374   -4.706513 H        1 UNL1     0.0317
     81 H         4.370753   4.812943   -5.096065 H        1 UNL1     0.0317
     82 H         6.352861   3.842084   -6.288704 H        1 UNL1     0.0428
     83 H         4.829375   3.277725   -6.938466 H        1 UNL1     0.0428
     84 H         6.859262   0.64453   -4.283474 H        1 UNL1     0.0428
     85 H         7.646874   2.144212   -4.629518 H        1 UNL1     0.0428
     86 H         6.388463   1.997479   -2.480164 H        1 UNL1     0.0317
     87 H         4.902604   1.693139   -3.256019 H        1 UNL1     0.0317
     88 H         7.088362   1.765733   -7.417492 H        1 UNL1     0.0429
     89 H         6.859082   0.208726   -6.61787 H        1 UNL1     0.0429
     90 H         4.24938   0.846853   -7.342464 H        1 UNL1     0.0308
     91 H         6.065326   1.969698   -9.555406 H        1 UNL1     0.0233
     92 H         4.311323   1.687208   -9.693854 H        1 UNL1     0.0233
     93 H         4.924261   2.911823   -8.603337 H        1 UNL1     0.0233
     94 H         4.646341   -0.692324   -9.299227 H        1 UNL1     0.0233
     95 H         6.358452   -0.69553   -8.848676 H        1 UNL1     0.0233
     96 H         5.13961   -1.317389   -7.712144 H        1 UNL1     0.0233
     97 H         3.330639   10.718528   0.426059 H        1 UNL1     0.0280
     98 H         4.877581   11.479084   0.169711 H        1 UNL1     0.0280
     99 H         3.673243   11.450194   -1.152585 H        1 UNL1     0.0280
     100 H         5.802211   11.278746   -2.511835 H        1 UNL1     0.2922
     101 H         4.694999   1.036719   2.412183 H        1 UNL1     0.0236
     102 H         5.90688   2.371498   2.53777 H        1 UNL1     0.0236
     103 H         6.329646   0.826735   1.866598 H        1 UNL1     0.0236
     104 H         4.422899   -0.36827   1.179448 H        1 UNL1     0.2098
     105 H         0.710274   1.281978   -0.928887 H        1 UNL1     0.0234
     106 H         1.291675   -0.405088   -1.011821 H        1 UNL1     0.0234
     107 H         0.0   -0.0   0.0 H        1 UNL1     0.0234
     108 H         1.003832   3.15584   1.903587 H        1 UNL1     0.2098
     109 H         0.859124   3.074653   -0.704562 H        1 UNL1     0.0234
     110 H         -0.354835   2.32027   -1.786233 H        1 UNL1     0.0234
     111 H         -0.237667   4.041126   -1.668892 H        1 UNL1     0.0234
     112 H         -3.372437   -1.97922   1.395564 H        1 UNL1     0.0342
     113 H         -3.11764   -0.368271   2.155933 H        1 UNL1     0.0342
     114 H         -4.329155   -0.576061   0.888248 H        1 UNL1     0.0342
     115 H         -2.69946   1.438295   3.448083 H        1 UNL1     0.0234
     116 H         -1.174302   1.519193   4.335853 H        1 UNL1     0.0234
     117 H         -1.809876   2.887298   3.398846 H        1 UNL1     0.0234
     118 H         0.35543   7.673169   -0.370099 H        1 UNL1     0.0309
     119 H         1.592683   7.943497   -1.636664 H        1 UNL1     0.0309
     120 H         0.965216   6.347126   -1.290196 H        1 UNL1     0.0309
     121 H         -0.761059   5.987932   3.146691 H        1 UNL1     0.0524
     122 H         -2.473106   5.605393   2.924396 H        1 UNL1     0.0524
     123 H         -1.581674   4.893737   4.29284 H        1 UNL1     0.0524
@<TRIPOS>BOND
     1     1     2    1
     2     1    42    1
     3     2     3    2
     4     3     4    1
     5     4     5    2
     6     5     7    1
     7     6    75    1
     8     6    76    1
     9     6    77    1
    10     7     9   am
    11     9    10    1
    12    10    11    2
    13    10    43    1
    14    11    14    1
    15    11    15    1
    16    12    13   ar
    17    12    27   ar
    18    12    43    1
    19    13    14    1
    20    13    30   ar
    21    14    17    2
    22    15    16    1
    23    16    17    1
    24    16    18    1
    25    16    22    1
    26    18    19    1
    27    19    20    1
    28    20    21    1
    29    21    22    1
    30    23    24    1
    31    23    88    1
    32    23    89    1
    33    24    25    1
    34    24    26    1
    35    24    90    1
    36    25    91    1
    37    25    92    1
    38    25    93    1
    39    26    94    1
    40    26    95    1
    41    26    96    1
    42    27    28   ar
    43    28    29   ar
    44    29    30   ar
    45    29    31    1
    46    30    33    1
    47    31    32    1
    48    32    33    1
    49    32    35    1
    50    34    97    1
    51    34    98    1
    52    34    99    1
    53    35    61    1
    54    36    37    1
    55    36    60    1
    56    37    38    1
    57    38    39    1
    58    39    40    1
    59    40    41    1
    60    41    42    1
    61    45   100    1
    62    47   101    1
    63    47   102    1
    64    47   103    1
    65    48   104    1
    66    49   105    1
    67    49   106    1
    68    49   107    1
    69    50   108    1
    70    51    59    1
    71    52   109    1
    72    52   110    1
    73    52   111    1
    74    53    54    1
    75    54    55    2
    76    54    56    1
    77    56   112    1
    78    56   113    1
    79    56   114    1
    80    57   115    1
    81    57   116    1
    82    57   117    1
    83    58   118    1
    84    58   119    1
    85    58   120    1
    86    59   121    1
    87    59   122    1
    88    59   123    1
    89    60    61    2
    90     1    47    1
    91     1    62    1
    92     2    63    1
    93     3    64    1
    94     4    65    1
    95     5     6    1
    96     7     8    2
    97     9    78    1
    98    15    79    1
    99    18    80    1
   100    18    81    1
   101    19    82    1
   102    19    83    1
   103    20    23    1
   104    21    84    1
   105    21    85    1
   106    22    86    1
   107    22    87    1
   108    27    45    1
   109    28    34    1
   110    32    58    1
   111    33    46    2
   112    36    51    1
   113    36    66    1
   114    37    52    1
   115    37    67    1
   116    38    53    1
   117    38    68    1
   118    42    48    1
   119    42    72    1
   120    43    44    2
   121    60    73    1
   122    61    74    1
   123    39    69    1
   124    39    57    1
   125    40    70    1
   126    40    50    1
   127    41    71    1
   128    41    49    1
