@<TRIPOS>MOLECULE
*****
 123 128 0 0 0
SMALL
GASTEIGER

@<TRIPOS>ATOM
     1 C         3.330125   0.175378   -2.992699 C.3        1 UNL1     0.0009
     2 C         4.733596   -1.003403   -3.271593 C.2        1 UNL1     -0.0787
     3 C         6.148202   -1.307023   -3.219151 C.2        1 UNL1     -0.0649
     4 C         6.908004   -2.78486   -3.543274 C.2        1 UNL1     -0.0542
     5 C         8.081303   -3.554523   -3.348165 C.2        1 UNL1     0.0115
     6 C         9.546211   -3.503937   -2.833568 C.3        1 UNL1     -0.0348
     7 C         8.018595   -5.140682   -3.58724 C.2        1 UNL1     0.2441
     8 O         8.452248   -5.679163   -4.596452 O.2        1 UNL1     -0.2702
     9 N         7.671548   -5.894107   -2.452312 N.am        1 UNL1     -0.2772
     10 C         6.304453   -6.018752   -2.358308 C.2        1 UNL1     0.1049
     11 C         5.664655   -5.006571   -1.801199 C.2        1 UNL1     0.0801
     12 C         4.271881   -6.62336   -3.685122 C.ar        1 UNL1     0.0753
     13 C         3.696838   -5.400099   -3.214411 C.ar        1 UNL1     0.0305
     14 C         4.325683   -4.617832   -2.152496 C.2        1 UNL1     0.0924
     15 N         6.14332   -3.954277   -1.115571 N.pl3        1 UNL1     -0.3170
     16 C         5.020763   -3.234616   -0.575008 C.3        1 UNL1     0.1275
     17 N         3.889449   -3.5262   -1.530429 N.2        1 UNL1     -0.2557
     18 C         4.645661   -3.905594   0.742865 C.3        1 UNL1     0.0016
     19 C         5.870349   -3.926983   1.64357 C.3        1 UNL1     0.0026
     20 N         6.315122   -2.557326   1.860929 N.3        1 UNL1     -0.3018
     21 C         6.640456   -1.808929   0.645023 C.3        1 UNL1     0.0026
     22 C         5.394964   -1.796126   -0.242942 C.3        1 UNL1     0.0016
     23 C         7.281985   -2.442027   2.934487 C.3        1 UNL1     0.0012
     24 C         7.907445   -3.810935   3.245368 C.3        1 UNL1     -0.0339
     25 C         7.979742   -4.065259   4.760013 C.3        1 UNL1     -0.0615
     26 C         7.139451   -4.908898   2.530215 C.3        1 UNL1     -0.0615
     27 C         3.606856   -7.424421   -4.610412 C.ar        1 UNL1     0.1347
     28 C         2.34935   -7.127504   -5.104952 C.ar        1 UNL1     0.0342
     29 C         1.824099   -5.894007   -4.664771 C.ar        1 UNL1     0.1435
     30 C         2.49471   -5.063597   -3.765927 C.ar        1 UNL1     0.0774
     31 O         0.563826   -5.515402   -4.97035 O.3        1 UNL1     -0.4436
     32 C         0.242787   -4.507064   -4.000267 C.3        1 UNL1     0.3143
     33 C         1.579263   -3.965838   -3.534307 C.2        1 UNL1     0.2504
     34 C         1.472543   -8.055273   -5.899026 C.3        1 UNL1     -0.0327
     35 O         -0.418959   -3.442839   -4.695084 O.2        1 UNL1     -0.4528
     36 C         -2.794161   -1.877684   -2.181761 C.3        1 UNL1     0.0854
     37 C         -2.4784   -1.248881   -0.770228 C.3        1 UNL1     0.0236
     38 C         -2.989803   0.258071   -0.571967 C.3        1 UNL1     0.1131
     39 C         -2.631802   1.357161   -1.651831 C.3        1 UNL1     0.0200
     40 C         -1.093302   1.444583   -2.290434 C.3        1 UNL1     0.0661
     41 C         0.351529   1.46791   -1.40188 C.3        1 UNL1     0.0091
     42 C         2.012567   0.806962   -1.813588 C.3        1 UNL1     0.0661
     43 C         5.55978   -7.055774   -3.087967 C.2        1 UNL1     0.2131
     44 O         5.95064   -8.209002   -3.093403 O.2        1 UNL1     -0.2851
     45 O         4.256084   -8.575714   -5.051393 O.3        1 UNL1     -0.5056
     46 O         1.834968   -2.868064   -3.092311 O.2        1 UNL1     -0.2836
     47 C         3.317951   1.269543   -4.093896 C.3        1 UNL1     -0.0566
     48 O         2.728739   2.042122   -1.412846 O.3        1 UNL1     -0.3909
     49 C         0.054537   1.058346   0.023444 C.3        1 UNL1     -0.0577
     50 O         -0.962626   0.582322   -3.402707 O.3        1 UNL1     -0.3910
     51 O         -3.323021   -0.994715   -3.145142 O.3        1 UNL1     -0.3753
     52 C         -1.104958   -1.741321   -0.207992 C.3        1 UNL1     -0.0564
     53 O         -2.997207   0.706228   0.860314 O.3        1 UNL1     -0.4608
     54 C         -2.980761   2.008707   1.285999 C.2        1 UNL1     0.3042
     55 O         -3.839307   2.588378   1.949865 O.2        1 UNL1     -0.2512
     56 C         -1.724356   2.745683   0.918538 C.3        1 UNL1     0.0332
     57 C         -3.865861   1.458538   -2.664251 C.3        1 UNL1     -0.0567
     58 C         -0.438806   -5.237172   -2.819631 C.3        1 UNL1     0.0210
     59 C         -4.019397   -1.626051   -4.218613 C.3        1 UNL1     0.0372
     60 C         -1.652276   -2.582053   -2.826062 C.2        1 UNL1     -0.0208
     61 C         -1.208622   -2.539579   -4.083087 C.2        1 UNL1     0.0882
     62 H         2.633908   -0.606077   -3.3203 H        1 UNL1     0.0365
     63 H         4.206528   -1.8426   -3.730306 H        1 UNL1     0.0576
     64 H         6.867893   -0.608616   -2.786276 H        1 UNL1     0.0615
     65 H         6.131977   -3.373424   -4.04012 H        1 UNL1     0.0622
     66 H         -3.548258   -2.650672   -1.977132 H        1 UNL1     0.0645
     67 H         -3.140071   -1.798057   -0.078017 H        1 UNL1     0.0362
     68 H         -4.074664   0.098159   -0.666976 H        1 UNL1     0.0741
     69 H         -2.760449   2.335572   -1.208468 H        1 UNL1     0.0359
     70 H         -1.12668   2.459859   -2.729935 H        1 UNL1     0.0600
     71 H         0.491377   2.56091   -1.288966 H        1 UNL1     0.0348
     72 H         1.476398   0.896651   -2.769513 H        1 UNL1     0.0602
     73 H         -1.248262   -3.288648   -2.14434 H        1 UNL1     0.0628
     74 H         -1.528793   -1.807893   -4.825626 H        1 UNL1     0.1022
     75 H         9.639643   -4.047663   -1.862658 H        1 UNL1     0.0279
     76 H         10.294465   -3.996217   -3.450695 H        1 UNL1     0.0279
     77 H         9.860996   -2.490215   -2.54551 H        1 UNL1     0.0279
     78 H         7.99405   -5.416757   -1.613142 H        1 UNL1     0.1553
     79 H         7.056498   -3.928781   -0.700372 H        1 UNL1     0.1484
     80 H         3.81916   -3.351287   1.20374 H        1 UNL1     0.0317
     81 H         4.283326   -4.925255   0.57358 H        1 UNL1     0.0317
     82 H         6.677153   -4.542511   1.219181 H        1 UNL1     0.0428
     83 H         5.581149   -4.411162   2.576836 H        1 UNL1     0.0428
     84 H         6.89452   -0.760576   0.830005 H        1 UNL1     0.0428
     85 H         7.528985   -2.21389   0.141198 H        1 UNL1     0.0428
     86 H         5.625541   -1.13247   -1.055581 H        1 UNL1     0.0317
     87 H         4.571567   -1.288105   0.273805 H        1 UNL1     0.0317
     88 H         8.077681   -1.760763   2.60579 H        1 UNL1     0.0429
     89 H         6.830489   -1.999947   3.831979 H        1 UNL1     0.0429
     90 H         8.924582   -3.842153   2.837114 H        1 UNL1     0.0308
     91 H         8.69496   -3.39244   5.242589 H        1 UNL1     0.0233
     92 H         6.997758   -3.935144   5.220867 H        1 UNL1     0.0233
     93 H         8.295637   -5.088414   4.997076 H        1 UNL1     0.0233
     94 H         6.37752   -4.472063   1.875637 H        1 UNL1     0.0233
     95 H         7.820394   -5.497407   1.908978 H        1 UNL1     0.0233
     96 H         6.643438   -5.576482   3.240336 H        1 UNL1     0.0233
     97 H         1.859497   -8.225023   -6.899367 H        1 UNL1     0.0280
     98 H         1.392654   -9.047189   -5.43537 H        1 UNL1     0.0280
     99 H         0.462584   -7.62265   -5.987989 H        1 UNL1     0.0280
     100 H         5.192056   -8.558667   -4.955008 H        1 UNL1     0.2922
     101 H         3.970068   2.092398   -3.801818 H        1 UNL1     0.0236
     102 H         2.315116   1.612303   -4.346523 H        1 UNL1     0.0236
     103 H         3.738031   0.903841   -5.04573 H        1 UNL1     0.0236
     104 H         2.775156   2.623685   -2.19681 H        1 UNL1     0.2098
     105 H         0.823423   1.336088   0.740022 H        1 UNL1     0.0234
     106 H         -0.9278   1.358249   0.388135 H        1 UNL1     0.0234
     107 H         -0.0   0.0   0.0 H        1 UNL1     0.0234
     108 H         -0.007538   0.440435   -3.549143 H        1 UNL1     0.2098
     109 H         -0.267664   -1.4851   -0.872072 H        1 UNL1     0.0234
     110 H         -0.896852   -1.373701   0.802597 H        1 UNL1     0.0234
     111 H         -1.078465   -2.834258   -0.104395 H        1 UNL1     0.0234
     112 H         -0.986092   2.045211   0.516479 H        1 UNL1     0.0342
     113 H         -1.915504   3.556872   0.217626 H        1 UNL1     0.0342
     114 H         -1.305926   3.187766   1.83322 H        1 UNL1     0.0342
     115 H         -4.816567   1.611879   -2.135258 H        1 UNL1     0.0234
     116 H         -3.769149   2.256053   -3.40362 H        1 UNL1     0.0234
     117 H         -4.071209   0.5176   -3.203147 H        1 UNL1     0.0234
     118 H         -0.155617   -4.803194   -1.844709 H        1 UNL1     0.0309
     119 H         -1.530345   -5.257036   -2.899323 H        1 UNL1     0.0309
     120 H         -0.122065   -6.282247   -2.732451 H        1 UNL1     0.0309
     121 H         -5.085437   -1.564347   -4.001568 H        1 UNL1     0.0524
     122 H         -3.847284   -1.120743   -5.183537 H        1 UNL1     0.0524
     123 H         -3.714037   -2.664965   -4.305263 H        1 UNL1     0.0524
@<TRIPOS>BOND
     1     1     2    1
     2     1    42    1
     3     2     3    2
     4     3     4    1
     5     4     5    2
     6     5     7    1
     7     6    75    1
     8     6    76    1
     9     6    77    1
    10     7     9   am
    11     9    10    1
    12    10    11    2
    13    10    43    1
    14    11    14    1
    15    11    15    1
    16    12    13   ar
    17    12    27   ar
    18    12    43    1
    19    13    14    1
    20    13    30   ar
    21    14    17    2
    22    15    16    1
    23    16    17    1
    24    16    18    1
    25    16    22    1
    26    18    19    1
    27    19    20    1
    28    20    21    1
    29    21    22    1
    30    23    24    1
    31    23    88    1
    32    23    89    1
    33    24    25    1
    34    24    26    1
    35    24    90    1
    36    25    91    1
    37    25    92    1
    38    25    93    1
    39    26    94    1
    40    26    95    1
    41    26    96    1
    42    27    28   ar
    43    28    29   ar
    44    29    30   ar
    45    29    31    1
    46    30    33    1
    47    31    32    1
    48    32    33    1
    49    32    35    1
    50    34    97    1
    51    34    98    1
    52    34    99    1
    53    35    61    1
    54    36    37    1
    55    36    60    1
    56    37    38    1
    57    38    39    1
    58    39    40    1
    59    40    41    1
    60    41    42    1
    61    45   100    1
    62    47   101    1
    63    47   102    1
    64    47   103    1
    65    48   104    1
    66    49   105    1
    67    49   106    1
    68    49   107    1
    69    50   108    1
    70    51    59    1
    71    52   109    1
    72    52   110    1
    73    52   111    1
    74    53    54    1
    75    54    55    2
    76    54    56    1
    77    56   112    1
    78    56   113    1
    79    56   114    1
    80    57   115    1
    81    57   116    1
    82    57   117    1
    83    58   118    1
    84    58   119    1
    85    58   120    1
    86    59   121    1
    87    59   122    1
    88    59   123    1
    89    60    61    2
    90     1    47    1
    91     1    62    1
    92     2    63    1
    93     3    64    1
    94     4    65    1
    95     5     6    1
    96     7     8    2
    97     9    78    1
    98    15    79    1
    99    18    80    1
   100    18    81    1
   101    19    82    1
   102    19    83    1
   103    20    23    1
   104    21    84    1
   105    21    85    1
   106    22    86    1
   107    22    87    1
   108    27    45    1
   109    28    34    1
   110    32    58    1
   111    33    46    2
   112    36    51    1
   113    36    66    1
   114    37    52    1
   115    37    67    1
   116    38    53    1
   117    38    68    1
   118    42    48    1
   119    42    72    1
   120    43    44    2
   121    60    73    1
   122    61    74    1
   123    39    69    1
   124    39    57    1
   125    40    70    1
   126    40    50    1
   127    41    71    1
   128    41    49    1
