@<TRIPOS>MOLECULE
*****
 123 128 0 0 0
SMALL
GASTEIGER

@<TRIPOS>ATOM
     1 C         -3.107075   2.847873   2.35261 C.3        1 UNL1     0.0009
     2 C         -4.856037   2.633535   2.929001 C.2        1 UNL1     -0.0787
     3 C         -6.253354   3.007503   2.868166 C.2        1 UNL1     -0.0649
     4 C         -7.561265   2.277392   3.657256 C.2        1 UNL1     -0.0542
     5 C         -8.968241   2.111673   3.662931 C.2        1 UNL1     0.0115
     6 C         -10.296055   2.621048   3.037815 C.3        1 UNL1     -0.0348
     7 C         -9.603282   0.890245   4.488659 C.2        1 UNL1     0.2441
     8 O         -10.131606   1.030258   5.583098 O.2        1 UNL1     -0.2702
     9 N         -9.745812   -0.302915   3.759135 N.am        1 UNL1     -0.2772
     10 C         -8.597846   -1.056911   3.842714 C.2        1 UNL1     0.1049
     11 C         -7.628947   -0.736864   3.004248 C.2        1 UNL1     0.0801
     12 C         -6.936   -1.965454   5.476773 C.ar        1 UNL1     0.0753
     13 C         -5.921061   -1.412907   4.632262 C.ar        1 UNL1     0.0305
     14 C         -6.231119   -0.895388   3.301439 C.2        1 UNL1     0.0924
     15 N         -7.647236   0.072742   1.931526 N.pl3        1 UNL1     -0.3170
     16 C         -6.379964   -0.055769   1.262377 C.3        1 UNL1     0.1275
     17 N         -5.413483   -0.443514   2.354756 N.2        1 UNL1     -0.2557
     18 C         -6.478419   -1.26373   0.335642 C.3        1 UNL1     0.0016
     19 C         -7.663314   -1.066364   -0.596377 C.3        1 UNL1     0.0026
     20 N         -7.462706   0.160769   -1.354618 N.3        1 UNL1     -0.3018
     21 C         -7.295225   1.370509   -0.546627 C.3        1 UNL1     0.0026
     22 C         -6.096983   1.152004   0.378773 C.3        1 UNL1     0.0016
     23 C         -8.374191   0.287167   -2.474377 C.3        1 UNL1     0.0012
     24 C         -9.103523   -1.041586   -2.727846 C.3        1 UNL1     -0.0339
     25 C         -9.375225   -1.257127   -4.22577 C.3        1 UNL1     -0.0615
     26 C         -8.311295   -2.192377   -2.132168 C.3        1 UNL1     -0.0615
     27 C         -6.615694   -2.565916   6.692079 C.ar        1 UNL1     0.1347
     28 C         -5.31746   -2.708018   7.148638 C.ar        1 UNL1     0.0342
     29 C         -4.339108   -2.113205   6.323903 C.ar        1 UNL1     0.1435
     30 C         -4.648564   -1.476533   5.121361 C.ar        1 UNL1     0.0774
     31 O         -3.020174   -2.261558   6.575719 O.3        1 UNL1     -0.4436
     32 C         -2.376411   -1.955903   5.329518 C.3        1 UNL1     0.3143
     33 C         -3.364568   -1.089405   4.575237 C.2        1 UNL1     0.2504
     34 C         -4.879115   -3.556035   8.310025 C.3        1 UNL1     -0.0327
     35 O         -1.241805   -1.132777   5.626817 O.2        1 UNL1     -0.4528
     36 C         1.32437   -1.88551   2.933078 C.3        1 UNL1     0.0854
     37 C         1.188788   -1.765119   1.366347 C.3        1 UNL1     0.0236
     38 C         2.301697   -0.85186   0.659852 C.3        1 UNL1     0.1131
     39 C         2.584736   0.60514   1.206943 C.3        1 UNL1     0.0200
     40 C         1.321305   1.611334   1.623781 C.3        1 UNL1     0.0661
     41 C         -0.037644   1.948927   0.666233 C.3        1 UNL1     0.0091
     42 C         -1.769025   2.319811   1.145988 C.3        1 UNL1     0.0661
     43 C         -8.332278   -1.957815   4.974173 C.2        1 UNL1     0.2131
     44 O         -9.197859   -2.71196   5.380096 O.2        1 UNL1     -0.2851
     45 O         -7.666987   -3.037906   7.475307 O.3        1 UNL1     -0.5056
     46 O         -3.140605   -0.25213   3.729858 O.2        1 UNL1     -0.2836
     47 C         -2.495628   4.141626   2.954538 C.3        1 UNL1     -0.0566
     48 O         -1.887828   3.491825   0.245218 O.3        1 UNL1     -0.3909
     49 C         -0.098264   0.947301   -0.465387 C.3        1 UNL1     -0.0577
     50 O         0.926207   1.391292   2.962886 O.3        1 UNL1     -0.3910
     51 O         2.285773   -1.047928   3.534403 O.3        1 UNL1     -0.3753
     52 C         -0.307011   -1.754241   0.910919 C.3        1 UNL1     -0.0564
     53 O         2.369559   -1.031438   -0.828595 O.3        1 UNL1     -0.4608
     54 C         2.605392   -0.035366   -1.739721 C.2        1 UNL1     0.3042
     55 O         1.828145   0.399845   -2.588437 O.2        1 UNL1     -0.2512
     56 C         3.96166   0.595952   -1.603016 C.3        1 UNL1     0.0332
     57 C         3.824919   0.510261   2.212487 C.3        1 UNL1     -0.0567
     58 C         -2.216016   -3.298583   4.579175 C.3        1 UNL1     0.0210
     59 C         3.478335   -1.709317   3.954197 C.3        1 UNL1     0.0372
     60 C         0.057004   -1.696876   3.690286 C.2        1 UNL1     -0.0208
     61 C         -0.194323   -0.989207   4.792458 C.2        1 UNL1     0.0882
     62 H         -2.808883   2.02436   3.012625 H        1 UNL1     0.0365
     63 H         -4.721103   1.889074   3.716427 H        1 UNL1     0.0576
     64 H         -6.620096   3.734851   2.140449 H        1 UNL1     0.0615
     65 H         -7.088793   1.637498   4.407449 H        1 UNL1     0.0622
     66 H         1.62554   -2.928525   3.104728 H        1 UNL1     0.0645
     67 H         1.460872   -2.768727   0.995805 H        1 UNL1     0.0362
     68 H         3.20184   -1.435741   0.905511 H        1 UNL1     0.0741
     69 H         3.095938   1.171654   0.440038 H        1 UNL1     0.0359
     70 H         1.851149   2.582802   1.647793 H        1 UNL1     0.0600
     71 H         0.319272   2.853763   0.136289 H        1 UNL1     0.0348
     72 H         -1.159028   2.509616   2.041082 H        1 UNL1     0.0602
     73 H         -0.686561   -2.342269   3.293012 H        1 UNL1     0.0628
     74 H         0.492093   -0.262752   5.228731 H        1 UNL1     0.1022
     75 H         -11.173884   2.184771   3.572712 H        1 UNL1     0.0279
     76 H         -10.486584   3.689641   3.107646 H        1 UNL1     0.0279
     77 H         -10.456454   2.246264   2.016292 H        1 UNL1     0.0279
     78 H         -9.899425   -0.086696   2.77642 H        1 UNL1     0.1553
     79 H         -8.486932   0.349874   1.457141 H        1 UNL1     0.1484
     80 H         -5.540531   -1.362225   -0.224206 H        1 UNL1     0.0317
     81 H         -6.599326   -2.188585   0.909816 H        1 UNL1     0.0317
     82 H         -8.614864   -1.040014   -0.045222 H        1 UNL1     0.0428
     83 H         -7.71618   -1.939741   -1.247122 H        1 UNL1     0.0428
     84 H         -7.066848   2.263739   -1.136369 H        1 UNL1     0.0428
     85 H         -8.216711   1.633994   -0.009266 H        1 UNL1     0.0428
     86 H         -5.923112   2.098691   0.855785 H        1 UNL1     0.0317
     87 H         -5.188169   0.996456   -0.215329 H        1 UNL1     0.0317
     88 H         -9.119873   1.052727   -2.223038 H        1 UNL1     0.0429
     89 H         -7.852117   0.630716   -3.376701 H        1 UNL1     0.0429
     90 H         -10.06277   -1.031786   -2.196844 H        1 UNL1     0.0308
     91 H         -8.487742   -1.037102   -4.826656 H        1 UNL1     0.0233
     92 H         -9.691922   -2.285123   -4.416916 H        1 UNL1     0.0233
     93 H         -10.180746   -0.614247   -4.600838 H        1 UNL1     0.0233
     94 H         -7.351578   -2.297959   -2.6495 H        1 UNL1     0.0233
     95 H         -8.105278   -1.997009   -1.076066 H        1 UNL1     0.0233
     96 H         -8.855269   -3.137312   -2.216773 H        1 UNL1     0.0233
     97 H         -4.349325   -2.976835   9.060413 H        1 UNL1     0.0280
     98 H         -5.729149   -4.016263   8.830494 H        1 UNL1     0.0280
     99 H         -4.208004   -4.353821   7.951914 H        1 UNL1     0.0280
     100 H         -8.17158   -3.726627   7.07949 H        1 UNL1     0.2922
     101 H         -2.783235   4.231452   4.001854 H        1 UNL1     0.0236
     102 H         -2.741215   5.037154   2.384714 H        1 UNL1     0.0236
     103 H         -1.393332   4.111024   2.968659 H        1 UNL1     0.0236
     104 H         -1.077075   3.528869   -0.299096 H        1 UNL1     0.2098
     105 H         -1.034103   0.950761   -1.018564 H        1 UNL1     0.0234
     106 H         0.746901   0.984906   -1.152563 H        1 UNL1     0.0234
     107 H         0.0   0.0   0.0 H        1 UNL1     0.0234
     108 H         0.212305   0.725019   2.948965 H        1 UNL1     0.2098
     109 H         -0.831304   -2.68108   1.18258 H        1 UNL1     0.0234
     110 H         -0.866196   -0.892236   1.290397 H        1 UNL1     0.0234
     111 H         -0.397228   -1.670625   -0.180326 H        1 UNL1     0.0234
     112 H         4.644055   -0.09398   -1.097371 H        1 UNL1     0.0342
     113 H         4.365585   0.910804   -2.564035 H        1 UNL1     0.0342
     114 H         3.861442   1.491567   -0.974531 H        1 UNL1     0.0342
     115 H         4.45287   1.410969   2.172603 H        1 UNL1     0.0234
     116 H         3.540298   0.354306   3.254945 H        1 UNL1     0.0234
     117 H         4.554859   -0.270719   1.93826 H        1 UNL1     0.0234
     118 H         -2.683405   -3.273124   3.579222 H        1 UNL1     0.0309
     119 H         -1.17222   -3.612598   4.478743 H        1 UNL1     0.0309
     120 H         -2.734245   -4.124098   5.079245 H        1 UNL1     0.0309
     121 H         3.372573   -1.938454   5.014228 H        1 UNL1     0.0524
     122 H         3.637373   -2.662397   3.4228 H        1 UNL1     0.0524
     123 H         4.340271   -1.067957   3.793523 H        1 UNL1     0.0524
@<TRIPOS>BOND
     1     1     2    1
     2     1    42    1
     3     2     3    2
     4     3     4    1
     5     4     5    2
     6     5     7    1
     7     6    75    1
     8     6    76    1
     9     6    77    1
    10     7     9   am
    11     9    10    1
    12    10    11    2
    13    10    43    1
    14    11    14    1
    15    11    15    1
    16    12    13   ar
    17    12    27   ar
    18    12    43    1
    19    13    14    1
    20    13    30   ar
    21    14    17    2
    22    15    16    1
    23    16    17    1
    24    16    18    1
    25    16    22    1
    26    18    19    1
    27    19    20    1
    28    20    21    1
    29    21    22    1
    30    23    24    1
    31    23    88    1
    32    23    89    1
    33    24    25    1
    34    24    26    1
    35    24    90    1
    36    25    91    1
    37    25    92    1
    38    25    93    1
    39    26    94    1
    40    26    95    1
    41    26    96    1
    42    27    28   ar
    43    28    29   ar
    44    29    30   ar
    45    29    31    1
    46    30    33    1
    47    31    32    1
    48    32    33    1
    49    32    35    1
    50    34    97    1
    51    34    98    1
    52    34    99    1
    53    35    61    1
    54    36    37    1
    55    36    60    1
    56    37    38    1
    57    38    39    1
    58    39    40    1
    59    40    41    1
    60    41    42    1
    61    45   100    1
    62    47   101    1
    63    47   102    1
    64    47   103    1
    65    48   104    1
    66    49   105    1
    67    49   106    1
    68    49   107    1
    69    50   108    1
    70    51    59    1
    71    52   109    1
    72    52   110    1
    73    52   111    1
    74    53    54    1
    75    54    55    2
    76    54    56    1
    77    56   112    1
    78    56   113    1
    79    56   114    1
    80    57   115    1
    81    57   116    1
    82    57   117    1
    83    58   118    1
    84    58   119    1
    85    58   120    1
    86    59   121    1
    87    59   122    1
    88    59   123    1
    89    60    61    2
    90     1    47    1
    91     1    62    1
    92     2    63    1
    93     3    64    1
    94     4    65    1
    95     5     6    1
    96     7     8    2
    97     9    78    1
    98    15    79    1
    99    18    80    1
   100    18    81    1
   101    19    82    1
   102    19    83    1
   103    20    23    1
   104    21    84    1
   105    21    85    1
   106    22    86    1
   107    22    87    1
   108    27    45    1
   109    28    34    1
   110    32    58    1
   111    33    46    2
   112    36    51    1
   113    36    66    1
   114    37    52    1
   115    37    67    1
   116    38    53    1
   117    38    68    1
   118    42    48    1
   119    42    72    1
   120    43    44    2
   121    60    73    1
   122    61    74    1
   123    39    69    1
   124    39    57    1
   125    40    70    1
   126    40    50    1
   127    41    71    1
   128    41    49    1
