@<TRIPOS>MOLECULE
*****
 123 128 0 0 0
SMALL
GASTEIGER

@<TRIPOS>ATOM
     1 C         5.133394   1.8345   0.542866 C.3        1 UNL1     0.0009
     2 C         6.54936   2.698534   -0.285096 C.2        1 UNL1     -0.0787
     3 C         7.835415   2.650545   -0.948275 C.2        1 UNL1     -0.0649
     4 C         8.680053   3.925645   -1.674268 C.2        1 UNL1     -0.0542
     5 C         9.694185   4.266762   -2.602844 C.2        1 UNL1     0.0115
     6 C         10.841994   3.691824   -3.47766 C.3        1 UNL1     -0.0348
     7 C         9.74963   5.764756   -3.177237 C.2        1 UNL1     0.2441
     8 O         10.549037   6.600863   -2.779242 O.2        1 UNL1     -0.2702
     9 N         8.997297   5.975672   -4.345851 N.am        1 UNL1     -0.2772
     10 C         7.703333   6.319491   -4.028412 C.2        1 UNL1     0.1049
     11 C         6.884291   5.318757   -3.760227 C.2        1 UNL1     0.0801
     12 C         6.356287   7.858588   -2.58828 C.ar        1 UNL1     0.0753
     13 C         5.627878   6.700544   -2.16761 C.ar        1 UNL1     0.0305
     14 C         5.783269   5.41275   -2.840285 C.2        1 UNL1     0.0924
     15 N         7.044611   3.997444   -3.947195 N.pl3        1 UNL1     -0.3170
     16 C         5.791156   3.356376   -3.650318 C.3        1 UNL1     0.1275
     17 N         5.125366   4.272216   -2.652479 N.2        1 UNL1     -0.2557
     18 C         4.940656   3.418606   -4.915418 C.3        1 UNL1     0.0016
     19 C         5.717704   2.78024   -6.055714 C.3        1 UNL1     0.0026
     20 N         6.025284   1.40229   -5.698393 N.3        1 UNL1     -0.3018
     21 C         6.789242   1.236816   -4.460105 C.3        1 UNL1     0.0026
     22 C         5.988181   1.881102   -3.327369 C.3        1 UNL1     0.0016
     23 C         6.495827   0.619471   -6.823749 C.3        1 UNL1     0.0012
     24 C         5.35069   0.358845   -7.814956 C.3        1 UNL1     -0.0339
     25 C         5.69899   0.86832   -9.22321 C.3        1 UNL1     -0.0615
     26 C         4.997837   -1.118363   -7.826327 C.3        1 UNL1     -0.0615
     27 C         6.114575   9.108209   -2.022469 C.ar        1 UNL1     0.1347
     28 C         5.145552   9.330187   -1.0603 C.ar        1 UNL1     0.0342
     29 C         4.474762   8.166945   -0.626625 C.ar        1 UNL1     0.1435
     30 C         4.731553   6.902681   -1.158523 C.ar        1 UNL1     0.0774
     31 O         3.428524   8.233027   0.225446 O.3        1 UNL1     -0.4436
     32 C         2.742134   6.983819   0.054504 C.3        1 UNL1     0.3143
     33 C         3.784434   6.031087   -0.495156 C.2        1 UNL1     0.2504
     34 C         4.659286   10.673499   -0.592157 C.3        1 UNL1     -0.0327
     35 O         2.390081   6.50911   1.359863 O.2        1 UNL1     -0.4528
     36 C         -0.796316   4.495853   0.910686 C.3        1 UNL1     0.0854
     37 C         -1.063535   3.246721   -0.014401 C.3        1 UNL1     0.0236
     38 C         -1.630752   1.952781   0.744365 C.3        1 UNL1     0.1131
     39 C         -0.894154   1.414624   2.036681 C.3        1 UNL1     0.0200
     40 C         0.770342   1.314781   2.080538 C.3        1 UNL1     0.0661
     41 C         1.754282   0.598304   0.898958 C.3        1 UNL1     0.0091
     42 C         3.45265   1.020503   0.348778 C.3        1 UNL1     0.0661
     43 C         7.315022   7.701604   -3.710083 C.2        1 UNL1     0.2131
     44 O         7.691628   8.625699   -4.407904 O.2        1 UNL1     -0.2851
     45 O         6.898805   10.175223   -2.455948 O.3        1 UNL1     -0.5056
     46 O         3.833804   4.825947   -0.390011 O.2        1 UNL1     -0.2836
     47 C         5.537488   1.385595   1.972962 C.3        1 UNL1     -0.0566
     48 O         3.940388   -0.378923   0.40203 O.3        1 UNL1     -0.3909
     49 C         0.930538   0.369055   -0.348594 C.3        1 UNL1     -0.0577
     50 O         1.334999   2.540277   2.501307 O.3        1 UNL1     -0.3910
     51 O         -0.919057   4.27304   2.297308 O.3        1 UNL1     -0.3753
     52 C         -0.011661   3.14025   -1.166432 C.3        1 UNL1     -0.0564
     53 O         -2.201366   0.916838   -0.179512 O.3        1 UNL1     -0.4608
     54 C         -2.368549   -0.409947   0.119854 C.2        1 UNL1     0.3042
     55 O         -1.666341   -1.35213   -0.244883 O.2        1 UNL1     -0.2512
     56 C         -3.521598   -0.677073   1.044968 C.3        1 UNL1     0.0332
     57 C         -1.637308   2.036029   3.309376 C.3        1 UNL1     -0.0567
     58 C         1.663624   7.221871   -1.027936 C.3        1 UNL1     0.0210
     59 C         -1.267344   5.426708   3.061252 C.3        1 UNL1     0.0372
     60 C         0.515169   5.166675   0.698167 C.2        1 UNL1     -0.0208
     61 C         1.41302   5.60858   1.579829 C.2        1 UNL1     0.0882
     62 H         4.629801   2.802875   0.649428 H        1 UNL1     0.0365
     63 H         6.253352   3.741974   -0.158287 H        1 UNL1     0.0576
     64 H         8.320649   1.701834   -1.18828 H        1 UNL1     0.0615
     65 H         8.166483   4.81942   -1.309721 H        1 UNL1     0.0622
     66 H         -1.560717   5.227717   0.613849 H        1 UNL1     0.0645
     67 H         -1.935653   3.544754   -0.621976 H        1 UNL1     0.0362
     68 H         -2.590717   2.355356   1.10203 H        1 UNL1     0.0741
     69 H         -1.197744   0.390695   2.209336 H        1 UNL1     0.0359
     70 H         0.898054   0.639132   2.947861 H        1 UNL1     0.0600
     71 H         1.825262   -0.430143   1.304192 H        1 UNL1     0.0348
     72 H         3.330288   1.484479   1.338258 H        1 UNL1     0.0602
     73 H         0.630475   5.389281   -0.333531 H        1 UNL1     0.0628
     74 H         1.398304   5.374664   2.644866 H        1 UNL1     0.1022
     75 H         10.86623   2.577455   -3.409625 H        1 UNL1     0.0279
     76 H         10.765548   3.859465   -4.549631 H        1 UNL1     0.0279
     77 H         11.839686   3.954065   -3.096161 H        1 UNL1     0.0279
     78 H         8.961238   5.115757   -4.889288 H        1 UNL1     0.1553
     79 H         7.723403   3.601545   -4.571245 H        1 UNL1     0.1484
     80 H         3.992969   2.896923   -4.735136 H        1 UNL1     0.0317
     81 H         4.685837   4.454172   -5.165058 H        1 UNL1     0.0317
     82 H         6.633808   3.342561   -6.289082 H        1 UNL1     0.0428
     83 H         5.093825   2.836933   -6.948244 H        1 UNL1     0.0428
     84 H         6.937879   0.191264   -4.17281 H        1 UNL1     0.0428
     85 H         7.8089   1.635668   -4.552472 H        1 UNL1     0.0428
     86 H         6.508804   1.625917   -2.423034 H        1 UNL1     0.0317
     87 H         5.022163   1.373677   -3.215894 H        1 UNL1     0.0317
     88 H         7.277896   1.194488   -7.336601 H        1 UNL1     0.0429
     89 H         6.953769   -0.321117   -6.491547 H        1 UNL1     0.0429
     90 H         4.45006   0.879261   -7.468191 H        1 UNL1     0.0308
     91 H         6.709208   0.56739   -9.51647 H        1 UNL1     0.0233
     92 H         4.984592   0.490445   -9.958367 H        1 UNL1     0.0233
     93 H         5.65999   1.962134   -9.293106 H        1 UNL1     0.0233
     94 H         4.402588   -1.357682   -8.714157 H        1 UNL1     0.0233
     95 H         5.910307   -1.720219   -7.859944 H        1 UNL1     0.0233
     96 H         4.42292   -1.398148   -6.939107 H        1 UNL1     0.0233
     97 H         3.811134   10.588031   0.080572 H        1 UNL1     0.0280
     98 H         5.430438   11.221749   -0.035379 H        1 UNL1     0.0280
     99 H         4.351593   11.277956   -1.461095 H        1 UNL1     0.0280
     100 H         6.414138   10.945878   -2.694297 H        1 UNL1     0.2922
     101 H         4.659655   1.020099   2.505388 H        1 UNL1     0.0236
     102 H         6.062697   2.158868   2.532594 H        1 UNL1     0.0236
     103 H         6.23208   0.529153   1.957412 H        1 UNL1     0.0236
     104 H         4.273335   -0.541025   1.306375 H        1 UNL1     0.2098
     105 H         0.735774   1.26708   -0.92948 H        1 UNL1     0.0234
     106 H         1.296683   -0.427632   -0.996015 H        1 UNL1     0.0234
     107 H         0.0   -0.0   0.0 H        1 UNL1     0.0234
     108 H         1.174595   3.192263   1.792116 H        1 UNL1     0.2098
     109 H         1.015956   3.059828   -0.78532 H        1 UNL1     0.0234
     110 H         -0.211995   2.314117   -1.857166 H        1 UNL1     0.0234
     111 H         -0.021981   4.031754   -1.807573 H        1 UNL1     0.0234
     112 H         -3.586309   -1.748143   1.259366 H        1 UNL1     0.0342
     113 H         -3.451475   -0.098073   1.96458 H        1 UNL1     0.0342
     114 H         -4.447558   -0.379358   0.533962 H        1 UNL1     0.0342
     115 H         -2.720853   1.856877   3.277392 H        1 UNL1     0.0234
     116 H         -1.270198   1.658706   4.265884 H        1 UNL1     0.0234
     117 H         -1.604525   3.138633   3.343014 H        1 UNL1     0.0234
     118 H         0.746313   7.670139   -0.607696 H        1 UNL1     0.0309
     119 H         2.017386   7.841733   -1.857891 H        1 UNL1     0.0309
     120 H         1.305901   6.288982   -1.477222 H        1 UNL1     0.0309
     121 H         -0.894022   5.276606   4.073901 H        1 UNL1     0.0524
     122 H         -0.800731   6.345295   2.668178 H        1 UNL1     0.0524
     123 H         -2.345735   5.557025   3.07479 H        1 UNL1     0.0524
@<TRIPOS>BOND
     1     1     2    1
     2     1    42    1
     3     2     3    2
     4     3     4    1
     5     4     5    2
     6     5     7    1
     7     6    75    1
     8     6    76    1
     9     6    77    1
    10     7     9   am
    11     9    10    1
    12    10    11    2
    13    10    43    1
    14    11    14    1
    15    11    15    1
    16    12    13   ar
    17    12    27   ar
    18    12    43    1
    19    13    14    1
    20    13    30   ar
    21    14    17    2
    22    15    16    1
    23    16    17    1
    24    16    18    1
    25    16    22    1
    26    18    19    1
    27    19    20    1
    28    20    21    1
    29    21    22    1
    30    23    24    1
    31    23    88    1
    32    23    89    1
    33    24    25    1
    34    24    26    1
    35    24    90    1
    36    25    91    1
    37    25    92    1
    38    25    93    1
    39    26    94    1
    40    26    95    1
    41    26    96    1
    42    27    28   ar
    43    28    29   ar
    44    29    30   ar
    45    29    31    1
    46    30    33    1
    47    31    32    1
    48    32    33    1
    49    32    35    1
    50    34    97    1
    51    34    98    1
    52    34    99    1
    53    35    61    1
    54    36    37    1
    55    36    60    1
    56    37    38    1
    57    38    39    1
    58    39    40    1
    59    40    41    1
    60    41    42    1
    61    45   100    1
    62    47   101    1
    63    47   102    1
    64    47   103    1
    65    48   104    1
    66    49   105    1
    67    49   106    1
    68    49   107    1
    69    50   108    1
    70    51    59    1
    71    52   109    1
    72    52   110    1
    73    52   111    1
    74    53    54    1
    75    54    55    2
    76    54    56    1
    77    56   112    1
    78    56   113    1
    79    56   114    1
    80    57   115    1
    81    57   116    1
    82    57   117    1
    83    58   118    1
    84    58   119    1
    85    58   120    1
    86    59   121    1
    87    59   122    1
    88    59   123    1
    89    60    61    2
    90     1    47    1
    91     1    62    1
    92     2    63    1
    93     3    64    1
    94     4    65    1
    95     5     6    1
    96     7     8    2
    97     9    78    1
    98    15    79    1
    99    18    80    1
   100    18    81    1
   101    19    82    1
   102    19    83    1
   103    20    23    1
   104    21    84    1
   105    21    85    1
   106    22    86    1
   107    22    87    1
   108    27    45    1
   109    28    34    1
   110    32    58    1
   111    33    46    2
   112    36    51    1
   113    36    66    1
   114    37    52    1
   115    37    67    1
   116    38    53    1
   117    38    68    1
   118    42    48    1
   119    42    72    1
   120    43    44    2
   121    60    73    1
   122    61    74    1
   123    39    69    1
   124    39    57    1
   125    40    70    1
   126    40    50    1
   127    41    71    1
   128    41    49    1
