@<TRIPOS>MOLECULE
*****
 123 128 0 0 0
SMALL
GASTEIGER

@<TRIPOS>ATOM
     1 C         -3.956369   -1.113967   -0.387236 C.3        1 UNL1     0.0009
     2 C         -5.066949   -1.846535   0.903884 C.2        1 UNL1     -0.0787
     3 C         -5.654999   -3.003754   1.545045 C.2        1 UNL1     -0.0649
     4 C         -6.634299   -3.043094   2.925545 C.2        1 UNL1     -0.0542
     5 C         -7.127695   -3.855248   3.97628 C.2        1 UNL1     0.0115
     6 C         -7.23332   -5.317183   4.490978 C.3        1 UNL1     -0.0348
     7 C         -7.739894   -3.149542   5.281722 C.2        1 UNL1     0.2441
     8 O         -8.942552   -3.0523   5.483424 O.2        1 UNL1     -0.2702
     9 N         -6.807524   -2.884156   6.299763 N.am        1 UNL1     -0.2772
     10 C         -6.224174   -1.652855   6.107606 C.2        1 UNL1     0.1049
     11 C         -5.211748   -1.614295   5.260417 C.2        1 UNL1     0.0801
     12 C         -6.76076   0.744304   5.635338 C.ar        1 UNL1     0.0753
     13 C         -5.792983   0.672186   4.583285 C.ar        1 UNL1     0.0305
     14 C         -4.893499   -0.471367   4.448131 C.2        1 UNL1     0.0924
     15 N         -4.512336   -2.618132   4.703944 N.pl3        1 UNL1     -0.3170
     16 C         -3.404482   -2.039456   3.991169 C.3        1 UNL1     0.1275
     17 N         -3.882058   -0.660728   3.605483 N.2        1 UNL1     -0.2557
     18 C         -2.277925   -1.830942   4.998688 C.3        1 UNL1     0.0016
     19 C         -1.969097   -3.162047   5.665302 C.3        1 UNL1     0.0026
     20 N         -1.583452   -4.120786   4.639083 N.3        1 UNL1     -0.3018
     21 C         -2.579988   -4.342304   3.589219 C.3        1 UNL1     0.0026
     22 C         -2.871778   -2.993184   2.929954 C.3        1 UNL1     0.0016
     23 C         -0.984985   -5.322166   5.186046 C.3        1 UNL1     0.0012
     24 C         0.406687   -5.01653   5.761887 C.3        1 UNL1     -0.0339
     25 C         0.432089   -3.657111   6.479795 C.3        1 UNL1     -0.0615
     26 C         0.848844   -6.142225   6.680629 C.3        1 UNL1     -0.0615
     27 C         -7.530869   1.888418   5.830411 C.ar        1 UNL1     0.1347
     28 C         -7.395236   3.033149   5.065399 C.ar        1 UNL1     0.0342
     29 C         -6.47104   2.921715   4.004924 C.ar        1 UNL1     0.1435
     30 C         -5.718512   1.7693   3.775009 C.ar        1 UNL1     0.0774
     31 O         -6.146007   3.985744   3.238633 O.3        1 UNL1     -0.4436
     32 C         -4.895542   3.627008   2.631574 C.3        1 UNL1     0.3143
     33 C         -4.861978   2.112302   2.659005 C.2        1 UNL1     0.2504
     34 C         -8.001128   4.374673   5.370864 C.3        1 UNL1     -0.0327
     35 O         -4.962806   4.017943   1.254658 O.2        1 UNL1     -0.4528
     36 C         -1.401498   4.84164   0.231579 C.3        1 UNL1     0.0854
     37 C         -0.11312   3.933719   0.288897 C.3        1 UNL1     0.0236
     38 C         0.666147   3.777545   -1.103977 C.3        1 UNL1     0.1131
     39 C         -0.129141   3.359939   -2.406048 C.3        1 UNL1     0.0200
     40 C         -1.268943   2.143509   -2.346154 C.3        1 UNL1     0.0661
     41 C         -1.044801   0.604232   -1.669399 C.3        1 UNL1     0.0091
     42 C         -2.233796   -0.509617   -0.826171 C.3        1 UNL1     0.0661
     43 C         -6.854329   -0.406434   6.567705 C.2        1 UNL1     0.2131
     44 O         -7.321686   -0.327609   7.689356 O.2        1 UNL1     -0.2851
     45 O         -8.482115   1.859963   6.848134 O.3        1 UNL1     -0.5056
     46 O         -4.277747   1.357916   1.913734 O.2        1 UNL1     -0.2836
     47 C         -4.627148   -1.195606   -1.784867 C.3        1 UNL1     -0.0566
     48 O         -1.828859   -1.711094   -1.595324 O.3        1 UNL1     -0.3909
     49 C         0.216088   0.617222   -0.834244 C.3        1 UNL1     -0.0577
     50 O         -2.530978   2.657305   -1.970649 O.3        1 UNL1     -0.3910
     51 O         -1.805836   5.256902   -1.053528 O.3        1 UNL1     -0.3753
     52 C         -0.286982   2.739026   1.282592 C.3        1 UNL1     -0.0564
     53 O         2.050501   3.21666   -0.958037 O.3        1 UNL1     -0.4608
     54 C         2.650852   2.344534   -1.828039 C.2        1 UNL1     0.3042
     55 O         2.803492   1.132203   -1.683839 O.2        1 UNL1     -0.2512
     56 C         3.104227   2.988023   -3.107526 C.3        1 UNL1     0.0332
     57 C         -0.511173   4.701371   -3.188854 C.3        1 UNL1     -0.0567
     58 C         -3.785967   4.167547   3.563341 C.3        1 UNL1     0.0210
     59 C         -1.578616   6.636782   -1.336665 C.3        1 UNL1     0.0372
     60 C         -2.60413   4.269383   0.895927 C.2        1 UNL1     -0.0208
     61 C         -3.872775   4.213952   0.488238 C.2        1 UNL1     0.0882
     62 H         -4.182793   -0.117477   0.010824 H        1 UNL1     0.0365
     63 H         -5.490407   -0.941907   1.345249 H        1 UNL1     0.0576
     64 H         -5.367373   -4.020138   1.26694 H        1 UNL1     0.0615
     65 H         -6.926725   -1.999144   3.067457 H        1 UNL1     0.0622
     66 H         -1.134438   5.736666   0.810935 H        1 UNL1     0.0645
     67 H         0.607259   4.527453   0.878043 H        1 UNL1     0.0362
     68 H         0.963346   4.824756   -1.266901 H        1 UNL1     0.0741
     69 H         0.574374   2.98976   -3.139835 H        1 UNL1     0.0359
     70 H         -1.370052   1.923589   -3.426188 H        1 UNL1     0.0600
     71 H         -0.706328   0.046846   -2.564784 H        1 UNL1     0.0348
     72 H         -2.84187   0.201545   -1.403933 H        1 UNL1     0.0602
     73 H         -2.351612   3.979186   1.885507 H        1 UNL1     0.0628
     74 H         -4.204852   4.437703   -0.526108 H        1 UNL1     0.1022
     75 H         -7.569385   -5.997824   3.67194 H        1 UNL1     0.0279
     76 H         -6.307262   -5.784274   4.818562 H        1 UNL1     0.0279
     77 H         -8.038309   -5.45132   5.228338 H        1 UNL1     0.0279
     78 H         -6.066408   -3.581448   6.275091 H        1 UNL1     0.1553
     79 H         -4.496674   -3.553787   5.06621 H        1 UNL1     0.1484
     80 H         -1.400321   -1.431547   4.476134 H        1 UNL1     0.0317
     81 H         -2.559404   -1.08742   5.752077 H        1 UNL1     0.0317
     82 H         -2.823332   -3.531743   6.251407 H        1 UNL1     0.0428
     83 H         -1.16453   -2.990178   6.380971 H        1 UNL1     0.0428
     84 H         -2.23468   -5.004802   2.789425 H        1 UNL1     0.0428
     85 H         -3.479508   -4.839492   3.977784 H        1 UNL1     0.0428
     86 H         -3.499012   -3.212959   2.085997 H        1 UNL1     0.0317
     87 H         -1.958632   -2.595243   2.470713 H        1 UNL1     0.0317
     88 H         -1.627797   -5.684269   5.999046 H        1 UNL1     0.0429
     89 H         -0.935985   -6.120873   4.434754 H        1 UNL1     0.0429
     90 H         1.136612   -4.9932   4.944037 H        1 UNL1     0.0308
     91 H         -0.403041   -3.561529   7.180169 H        1 UNL1     0.0233
     92 H         1.371469   -3.523808   7.021463 H        1 UNL1     0.0233
     93 H         0.359598   -2.814592   5.781409 H        1 UNL1     0.0233
     94 H         1.614865   -5.783098   7.376384 H        1 UNL1     0.0233
     95 H         -0.000636   -6.499383   7.269514 H        1 UNL1     0.0233
     96 H         1.262792   -6.980769   6.113656 H        1 UNL1     0.0233
     97 H         -7.246709   5.149428   5.470039 H        1 UNL1     0.0280
     98 H         -8.67762   4.713981   4.575575 H        1 UNL1     0.0280
     99 H         -8.564938   4.318299   6.316399 H        1 UNL1     0.0280
     100 H         -9.038955   1.101332   6.842486 H        1 UNL1     0.2922
     101 H         -4.996809   -0.21183   -2.073298 H        1 UNL1     0.0236
     102 H         -5.403508   -1.957687   -1.843863 H        1 UNL1     0.0236
     103 H         -3.90682   -1.466539   -2.574751 H        1 UNL1     0.0236
     104 H         -2.313428   -1.695288   -2.443801 H        1 UNL1     0.2098
     105 H         1.090061   0.207115   -1.334038 H        1 UNL1     0.0234
     106 H         0.455172   1.581291   -0.385538 H        1 UNL1     0.0234
     107 H         0.0   0.0   0.0 H        1 UNL1     0.0234
     108 H         -3.093943   1.896499   -1.729786 H        1 UNL1     0.2098
     109 H         -0.469092   3.077448   2.312164 H        1 UNL1     0.0234
     110 H         -1.074973   2.040211   0.981806 H        1 UNL1     0.0234
     111 H         0.616759   2.116945   1.329658 H        1 UNL1     0.0234
     112 H         3.553851   2.236222   -3.763255 H        1 UNL1     0.0342
     113 H         2.293806   3.512015   -3.612 H        1 UNL1     0.0342
     114 H         3.878433   3.728483   -2.863622 H        1 UNL1     0.0342
     115 H         -0.517704   4.551311   -4.27726 H        1 UNL1     0.0234
     116 H         -1.480844   5.117858   -2.908987 H        1 UNL1     0.0234
     117 H         0.244178   5.499671   -3.088336 H        1 UNL1     0.0234
     118 H         -3.237695   5.011356   3.109039 H        1 UNL1     0.0309
     119 H         -4.160397   4.471307   4.546059 H        1 UNL1     0.0309
     120 H         -2.999836   3.428666   3.753496 H        1 UNL1     0.0309
     121 H         -2.300251   6.941064   -2.0943 H        1 UNL1     0.0524
     122 H         -1.735837   7.276705   -0.45246 H        1 UNL1     0.0524
     123 H         -0.566415   6.78364   -1.702693 H        1 UNL1     0.0524
@<TRIPOS>BOND
     1     1     2    1
     2     1    42    1
     3     2     3    2
     4     3     4    1
     5     4     5    2
     6     5     7    1
     7     6    75    1
     8     6    76    1
     9     6    77    1
    10     7     9   am
    11     9    10    1
    12    10    11    2
    13    10    43    1
    14    11    14    1
    15    11    15    1
    16    12    13   ar
    17    12    27   ar
    18    12    43    1
    19    13    14    1
    20    13    30   ar
    21    14    17    2
    22    15    16    1
    23    16    17    1
    24    16    18    1
    25    16    22    1
    26    18    19    1
    27    19    20    1
    28    20    21    1
    29    21    22    1
    30    23    24    1
    31    23    88    1
    32    23    89    1
    33    24    25    1
    34    24    26    1
    35    24    90    1
    36    25    91    1
    37    25    92    1
    38    25    93    1
    39    26    94    1
    40    26    95    1
    41    26    96    1
    42    27    28   ar
    43    28    29   ar
    44    29    30   ar
    45    29    31    1
    46    30    33    1
    47    31    32    1
    48    32    33    1
    49    32    35    1
    50    34    97    1
    51    34    98    1
    52    34    99    1
    53    35    61    1
    54    36    37    1
    55    36    60    1
    56    37    38    1
    57    38    39    1
    58    39    40    1
    59    40    41    1
    60    41    42    1
    61    45   100    1
    62    47   101    1
    63    47   102    1
    64    47   103    1
    65    48   104    1
    66    49   105    1
    67    49   106    1
    68    49   107    1
    69    50   108    1
    70    51    59    1
    71    52   109    1
    72    52   110    1
    73    52   111    1
    74    53    54    1
    75    54    55    2
    76    54    56    1
    77    56   112    1
    78    56   113    1
    79    56   114    1
    80    57   115    1
    81    57   116    1
    82    57   117    1
    83    58   118    1
    84    58   119    1
    85    58   120    1
    86    59   121    1
    87    59   122    1
    88    59   123    1
    89    60    61    2
    90     1    47    1
    91     1    62    1
    92     2    63    1
    93     3    64    1
    94     4    65    1
    95     5     6    1
    96     7     8    2
    97     9    78    1
    98    15    79    1
    99    18    80    1
   100    18    81    1
   101    19    82    1
   102    19    83    1
   103    20    23    1
   104    21    84    1
   105    21    85    1
   106    22    86    1
   107    22    87    1
   108    27    45    1
   109    28    34    1
   110    32    58    1
   111    33    46    2
   112    36    51    1
   113    36    66    1
   114    37    52    1
   115    37    67    1
   116    38    53    1
   117    38    68    1
   118    42    48    1
   119    42    72    1
   120    43    44    2
   121    60    73    1
   122    61    74    1
   123    39    69    1
   124    39    57    1
   125    40    70    1
   126    40    50    1
   127    41    71    1
   128    41    49    1
