@<TRIPOS>MOLECULE
*****
 123 128 0 0 0
SMALL
GASTEIGER

@<TRIPOS>ATOM
     1 C         -1.306356   -5.317217   -0.179977 C.3        1 UNL1     0.0009
     2 C         -2.677641   -6.55588   -0.329407 C.2        1 UNL1     -0.0787
     3 C         -3.577959   -7.512534   0.279105 C.2        1 UNL1     -0.0649
     4 C         -4.849527   -8.356695   -0.453605 C.2        1 UNL1     -0.0542
     5 C         -6.05185   -9.070921   -0.226932 C.2        1 UNL1     0.0115
     6 C         -6.946709   -9.708545   0.871241 C.3        1 UNL1     -0.0348
     7 C         -7.066624   -9.292084   -1.450986 C.2        1 UNL1     0.2441
     8 O         -7.156487   -10.35041   -2.057943 O.2        1 UNL1     -0.2702
     9 N         -8.026945   -8.27794   -1.610509 N.am        1 UNL1     -0.2772
     10 C         -7.535818   -7.273378   -2.412365 C.2        1 UNL1     0.1049
     11 C         -6.777527   -6.371147   -1.816382 C.2        1 UNL1     0.0801
     12 C         -6.379633   -6.861513   -4.592029 C.ar        1 UNL1     0.0753
     13 C         -5.453154   -6.054031   -3.858394 C.ar        1 UNL1     0.0305
     14 C         -5.700149   -5.677243   -2.468403 C.2        1 UNL1     0.0924
     15 N         -6.569148   -6.146266   -0.507744 N.pl3        1 UNL1     -0.3170
     16 C         -5.79479   -4.939588   -0.387105 C.3        1 UNL1     0.1275
     17 N         -5.009821   -4.864134   -1.673905 N.2        1 UNL1     -0.2557
     18 C         -6.773225   -3.769387   -0.418677 C.3        1 UNL1     0.0016
     19 C         -7.803349   -3.96694   0.681963 C.3        1 UNL1     0.0026
     20 N         -7.112428   -4.037833   1.962053 N.3        1 UNL1     -0.3018
     21 C         -6.105296   -5.095658   2.067216 C.3        1 UNL1     0.0026
     22 C         -5.07826   -4.875053   0.955269 C.3        1 UNL1     0.0016
     23 C         -8.01003   -3.924791   3.094385 C.3        1 UNL1     0.0012
     24 C         -8.564547   -2.495532   3.20155 C.3        1 UNL1     -0.0339
     25 C         -10.098499   -2.478218   3.097872 C.3        1 UNL1     -0.0615
     26 C         -8.0838   -1.845451   4.487263 C.3        1 UNL1     -0.0615
     27 C         -6.198088   -7.115906   -5.949395 C.ar        1 UNL1     0.1347
     28 C         -5.153926   -6.586862   -6.686883 C.ar        1 UNL1     0.0342
     29 C         -4.2276   -5.83518   -5.933186 C.ar        1 UNL1     0.1435
     30 C         -4.376968   -5.602007   -4.56551 C.ar        1 UNL1     0.0774
     31 O         -3.216762   -5.163247   -6.526246 O.3        1 UNL1     -0.4436
     32 C         -2.814616   -4.183613   -5.556984 C.3        1 UNL1     0.3143
     33 C         -3.266194   -4.739128   -4.221434 C.2        1 UNL1     0.2504
     34 C         -5.033402   -6.607768   -8.185261 C.3        1 UNL1     -0.0327
     35 O         -1.381929   -4.165801   -5.5385 O.2        1 UNL1     -0.4528
     36 C         -0.397308   -0.622743   -4.597567 C.3        1 UNL1     0.0854
     37 C         -0.787526   0.213391   -3.318453 C.3        1 UNL1     0.0236
     38 C         0.453953   0.796973   -2.487846 C.3        1 UNL1     0.1131
     39 C         1.635186   -0.164965   -2.061662 C.3        1 UNL1     0.0200
     40 C         1.310198   -1.682686   -1.450643 C.3        1 UNL1     0.0661
     41 C         0.217568   -2.038419   -0.202756 C.3        1 UNL1     0.0091
     42 C         -0.826147   -3.520627   0.078529 C.3        1 UNL1     0.0661
     43 C         -7.588479   -7.34543   -3.880149 C.2        1 UNL1     0.2131
     44 O         -8.61148   -7.686213   -4.4459 O.2        1 UNL1     -0.2851
     45 O         -7.12082   -7.949003   -6.578644 O.3        1 UNL1     -0.5056
     46 O         -2.799941   -4.533295   -3.12321 O.2        1 UNL1     -0.2836
     47 C         0.052401   -6.039203   0.026169 C.3        1 UNL1     -0.0566
     48 O         -0.450555   -3.654528   1.506856 O.3        1 UNL1     -0.3909
     49 C         -0.658866   -0.829508   0.037852 C.3        1 UNL1     -0.0577
     50 O         1.173955   -2.6249   -2.495341 O.3        1 UNL1     -0.3910
     51 O         0.975576   -0.900843   -4.756562 O.3        1 UNL1     -0.3753
     52 C         -2.062321   -0.358258   -2.616269 C.3        1 UNL1     -0.0564
     53 O         0.069699   1.860733   -1.501393 O.3        1 UNL1     -0.4608
     54 C         0.622131   2.029704   -0.258736 C.2        1 UNL1     0.3042
     55 O         0.123467   1.734707   0.82669 O.2        1 UNL1     -0.2512
     56 C         2.01525   2.590848   -0.291155 C.3        1 UNL1     0.0332
     57 C         2.784157   -0.036839   -3.166934 C.3        1 UNL1     -0.0567
     58 C         -3.626639   -2.904146   -5.865385 C.3        1 UNL1     0.0210
     59 C         1.617949   -0.171067   -5.800904 C.3        1 UNL1     0.0372
     60 C         -1.117469   -1.916671   -4.746827 C.2        1 UNL1     -0.0208
     61 C         -0.661952   -3.126835   -5.073557 C.2        1 UNL1     0.0882
     62 H         -1.39499   -5.11802   -1.254768 H        1 UNL1     0.0365
     63 H         -2.820941   -6.571366   -1.411856 H        1 UNL1     0.0576
     64 H         -3.61369   -7.656864   1.361232 H        1 UNL1     0.0615
     65 H         -4.675306   -8.213206   -1.523437 H        1 UNL1     0.0622
     66 H         -0.71926   0.000633   -5.443614 H        1 UNL1     0.0645
     67 H         -1.23176   1.13747   -3.727469 H        1 UNL1     0.0362
     68 H         0.883778   1.468322   -3.246834 H        1 UNL1     0.0741
     69 H         2.190214   0.30033   -1.258013 H        1 UNL1     0.0359
     70 H         2.289934   -1.917551   -0.992367 H        1 UNL1     0.0600
     71 H         0.898255   -1.990117   0.669763 H        1 UNL1     0.0348
     72 H         -0.035382   -3.834366   -0.618303 H        1 UNL1     0.0602
     73 H         -2.162651   -1.745187   -4.673103 H        1 UNL1     0.0628
     74 H         0.393437   -3.398606   -5.112694 H        1 UNL1     0.1022
     75 H         -6.330854   -10.324752   1.569845 H        1 UNL1     0.0279
     76 H         -7.449747   -9.020581   1.547058 H        1 UNL1     0.0279
     77 H         -7.639624   -10.462741   0.470294 H        1 UNL1     0.0279
     78 H         -8.245082   -7.867908   -0.704767 H        1 UNL1     0.1553
     79 H         -7.178622   -6.476022   0.218022 H        1 UNL1     0.1484
     80 H         -6.21661   -2.834199   -0.283136 H        1 UNL1     0.0317
     81 H         -7.269479   -3.700437   -1.392652 H        1 UNL1     0.0317
     82 H         -8.414036   -4.865775   0.511469 H        1 UNL1     0.0428
     83 H         -8.491998   -3.122498   0.640351 H        1 UNL1     0.0428
     84 H         -5.545991   -5.076859   3.007767 H        1 UNL1     0.0428
     85 H         -6.559469   -6.095972   2.046833 H        1 UNL1     0.0428
     86 H         -4.291322   -5.581624   1.143614 H        1 UNL1     0.0317
     87 H         -4.584963   -3.904414   1.087988 H        1 UNL1     0.0317
     88 H         -8.849379   -4.614275   2.935017 H        1 UNL1     0.0429
     89 H         -7.516469   -4.228961   4.026401 H        1 UNL1     0.0429
     90 H         -8.152621   -1.888409   2.38673 H        1 UNL1     0.0308
     91 H         -10.5341   -3.402056   3.490142 H        1 UNL1     0.0233
     92 H         -10.512912   -1.626734   3.642707 H        1 UNL1     0.0233
     93 H         -10.445986   -2.377221   2.062552 H        1 UNL1     0.0233
     94 H         -8.935131   -1.625075   5.140337 H        1 UNL1     0.0233
     95 H         -7.415429   -2.525617   5.022628 H        1 UNL1     0.0233
     96 H         -7.550888   -0.91166   4.287248 H        1 UNL1     0.0233
     97 H         -4.961131   -5.607688   -8.60221 H        1 UNL1     0.0280
     98 H         -4.133072   -7.138979   -8.520638 H        1 UNL1     0.0280
     99 H         -5.918676   -7.100211   -8.61987 H        1 UNL1     0.0280
     100 H         -7.8765   -7.506522   -6.92329 H        1 UNL1     0.2922
     101 H         0.627012   -6.01264   -0.899451 H        1 UNL1     0.0236
     102 H         -0.05478   -7.052399   0.412083 H        1 UNL1     0.0236
     103 H         0.687836   -5.522856   0.764952 H        1 UNL1     0.0236
     104 H         0.498283   -3.433885   1.584266 H        1 UNL1     0.2098
     105 H         -1.429545   -0.676821   -0.713515 H        1 UNL1     0.0234
     106 H         -1.08899   -0.770609   1.037577 H        1 UNL1     0.0234
     107 H         0.0   0.0   0.0 H        1 UNL1     0.0234
     108 H         0.766316   -3.425565   -2.112543 H        1 UNL1     0.2098
     109 H         -2.942655   -0.340643   -3.273852 H        1 UNL1     0.0234
     110 H         -1.919433   -1.370248   -2.222313 H        1 UNL1     0.0234
     111 H         -2.338483   0.234351   -1.733945 H        1 UNL1     0.0234
     112 H         2.404076   2.680696   0.727711 H        1 UNL1     0.0342
     113 H         2.682238   1.995422   -0.912796 H        1 UNL1     0.0342
     114 H         1.968822   3.599602   -0.72408 H        1 UNL1     0.0342
     115 H         3.785446   -0.157814   -2.731075 H        1 UNL1     0.0234
     116 H         2.693936   -0.752928   -3.986157 H        1 UNL1     0.0234
     117 H         2.862878   0.973203   -3.604609 H        1 UNL1     0.0234
     118 H         -2.990386   -2.09595   -6.266643 H        1 UNL1     0.0309
     119 H         -4.459578   -3.079395   -6.553646 H        1 UNL1     0.0309
     120 H         -4.06507   -2.457599   -4.96623 H        1 UNL1     0.0309
     121 H         1.626171   -0.80349   -6.68822 H        1 UNL1     0.0524
     122 H         1.077076   0.75484   -6.058175 H        1 UNL1     0.0524
     123 H         2.633948   0.082762   -5.512096 H        1 UNL1     0.0524
@<TRIPOS>BOND
     1     1     2    1
     2     1    42    1
     3     2     3    2
     4     3     4    1
     5     4     5    2
     6     5     7    1
     7     6    75    1
     8     6    76    1
     9     6    77    1
    10     7     9   am
    11     9    10    1
    12    10    11    2
    13    10    43    1
    14    11    14    1
    15    11    15    1
    16    12    13   ar
    17    12    27   ar
    18    12    43    1
    19    13    14    1
    20    13    30   ar
    21    14    17    2
    22    15    16    1
    23    16    17    1
    24    16    18    1
    25    16    22    1
    26    18    19    1
    27    19    20    1
    28    20    21    1
    29    21    22    1
    30    23    24    1
    31    23    88    1
    32    23    89    1
    33    24    25    1
    34    24    26    1
    35    24    90    1
    36    25    91    1
    37    25    92    1
    38    25    93    1
    39    26    94    1
    40    26    95    1
    41    26    96    1
    42    27    28   ar
    43    28    29   ar
    44    29    30   ar
    45    29    31    1
    46    30    33    1
    47    31    32    1
    48    32    33    1
    49    32    35    1
    50    34    97    1
    51    34    98    1
    52    34    99    1
    53    35    61    1
    54    36    37    1
    55    36    60    1
    56    37    38    1
    57    38    39    1
    58    39    40    1
    59    40    41    1
    60    41    42    1
    61    45   100    1
    62    47   101    1
    63    47   102    1
    64    47   103    1
    65    48   104    1
    66    49   105    1
    67    49   106    1
    68    49   107    1
    69    50   108    1
    70    51    59    1
    71    52   109    1
    72    52   110    1
    73    52   111    1
    74    53    54    1
    75    54    55    2
    76    54    56    1
    77    56   112    1
    78    56   113    1
    79    56   114    1
    80    57   115    1
    81    57   116    1
    82    57   117    1
    83    58   118    1
    84    58   119    1
    85    58   120    1
    86    59   121    1
    87    59   122    1
    88    59   123    1
    89    60    61    2
    90     1    47    1
    91     1    62    1
    92     2    63    1
    93     3    64    1
    94     4    65    1
    95     5     6    1
    96     7     8    2
    97     9    78    1
    98    15    79    1
    99    18    80    1
   100    18    81    1
   101    19    82    1
   102    19    83    1
   103    20    23    1
   104    21    84    1
   105    21    85    1
   106    22    86    1
   107    22    87    1
   108    27    45    1
   109    28    34    1
   110    32    58    1
   111    33    46    2
   112    36    51    1
   113    36    66    1
   114    37    52    1
   115    37    67    1
   116    38    53    1
   117    38    68    1
   118    42    48    1
   119    42    72    1
   120    43    44    2
   121    60    73    1
   122    61    74    1
   123    39    69    1
   124    39    57    1
   125    40    70    1
   126    40    50    1
   127    41    71    1
   128    41    49    1
