@<TRIPOS>MOLECULE
*****
 123 128 0 0 0
SMALL
GASTEIGER

@<TRIPOS>ATOM
     1 C         0.640962   0.749606   4.009061 C.3        1 UNL1     0.0009
     2 C         1.28376   -0.416095   5.299405 C.2        1 UNL1     -0.0787
     3 C         1.043954   -1.375518   6.356782 C.2        1 UNL1     -0.0649
     4 C         2.182578   -2.307863   7.193816 C.2        1 UNL1     -0.0542
     5 C         2.377505   -3.463464   7.989848 C.2        1 UNL1     0.0115
     6 C         1.645771   -4.585397   8.776713 C.3        1 UNL1     -0.0348
     7 C         3.860541   -4.057555   8.146841 C.2        1 UNL1     0.2441
     8 O         4.545145   -3.882714   9.145477 O.2        1 UNL1     -0.2702
     9 N         4.220471   -5.007354   7.174995 N.am        1 UNL1     -0.2772
     10 C         4.762087   -4.385675   6.07341 C.2        1 UNL1     0.1049
     11 C         3.901477   -3.907589   5.193065 C.2        1 UNL1     0.0801
     12 C         6.462964   -2.682172   5.393389 C.ar        1 UNL1     0.0753
     13 C         5.428598   -2.076224   4.611391 C.ar        1 UNL1     0.0305
     14 C         4.150078   -2.745827   4.383199 C.2        1 UNL1     0.0924
     15 N         2.576832   -4.107279   5.083677 N.pl3        1 UNL1     -0.3170
     16 C         2.140927   -3.499831   3.854349 C.3        1 UNL1     0.1275
     17 N         3.127392   -2.38319   3.614087 N.2        1 UNL1     -0.2557
     18 C         2.372606   -4.516497   2.740609 C.3        1 UNL1     0.0016
     19 C         1.645327   -5.803064   3.097543 C.3        1 UNL1     0.0026
     20 N         0.227121   -5.510868   3.253558 N.3        1 UNL1     -0.3018
     21 C         -0.091637   -4.49716   4.261108 C.3        1 UNL1     0.0026
     22 C         0.645577   -3.212081   3.880345 C.3        1 UNL1     0.0016
     23 C         -0.593156   -6.704954   3.297706 C.3        1 UNL1     0.0012
     24 C         0.224104   -7.935771   2.874703 C.3        1 UNL1     -0.0339
     25 C         -0.644926   -8.955928   2.120963 C.3        1 UNL1     -0.0615
     26 C         1.424094   -7.50548   2.04908 C.3        1 UNL1     -0.0615
     27 C         7.720573   -2.094181   5.506555 C.ar        1 UNL1     0.1347
     28 C         8.072872   -0.926147   4.854151 C.ar        1 UNL1     0.0342
     29 C         7.023677   -0.321748   4.129544 C.ar        1 UNL1     0.1435
     30 C         5.748316   -0.880372   4.036733 C.ar        1 UNL1     0.0774
     31 O         7.237548   0.76117   3.350728 O.3        1 UNL1     -0.4436
     32 C         6.121361   0.784987   2.448268 C.3        1 UNL1     0.3143
     33 C         5.025944   0.010175   3.152498 C.2        1 UNL1     0.2504
     34 C         9.465143   -0.373876   4.725007 C.3        1 UNL1     -0.0327
     35 O         5.677447   2.144252   2.355576 O.2        1 UNL1     -0.4528
     36 C         4.221361   2.528144   -1.12875 C.3        1 UNL1     0.0854
     37 C         3.056098   1.717747   -1.816457 C.3        1 UNL1     0.0236
     38 C         1.852931   2.613626   -2.383499 C.3        1 UNL1     0.1131
     39 C         1.169662   3.692378   -1.449847 C.3        1 UNL1     0.0200
     40 C         0.799295   3.325349   0.134626 C.3        1 UNL1     0.0661
     41 C         -0.037644   1.948927   0.666233 C.3        1 UNL1     0.0091
     42 C         0.116394   0.989657   2.222342 C.3        1 UNL1     0.0661
     43 C         6.180476   -4.003369   6.007311 C.2        1 UNL1     0.2131
     44 O         7.048313   -4.787224   6.346674 O.2        1 UNL1     -0.2851
     45 O         8.656393   -2.724876   6.323808 O.3        1 UNL1     -0.5056
     46 O         3.826562   0.119062   3.028082 O.2        1 UNL1     -0.2836
     47 C         0.096341   2.042555   4.673631 C.3        1 UNL1     -0.0566
     48 O         -1.344627   0.943089   2.472071 O.3        1 UNL1     -0.3909
     49 C         -0.098264   0.947301   -0.465387 C.3        1 UNL1     -0.0577
     50 O         1.905589   3.574031   0.978424 O.3        1 UNL1     -0.3910
     51 O         3.986549   3.905491   -0.941105 O.3        1 UNL1     -0.3753
     52 C         2.809045   0.343454   -1.112729 C.3        1 UNL1     -0.0564
     53 O         0.947274   1.875939   -3.325799 O.3        1 UNL1     -0.4608
     54 C         -0.412482   2.027308   -3.403782 C.2        1 UNL1     0.3042
     55 O         -1.273906   1.194106   -3.125284 O.2        1 UNL1     -0.2512
     56 C         -0.841033   3.402596   -3.829974 C.3        1 UNL1     0.0332
     57 C         1.871355   5.099124   -1.744584 C.3        1 UNL1     -0.0567
     58 C         6.558944   -0.001188   1.1905 C.3        1 UNL1     0.0210
     59 C         4.692248   4.761534   -1.838348 C.3        1 UNL1     0.0372
     60 C         4.675043   1.987622   0.181658 C.2        1 UNL1     -0.0208
     61 C         4.942599   2.613051   1.328828 C.2        1 UNL1     0.0882
     62 H         1.675359   0.961802   3.712906 H        1 UNL1     0.0365
     63 H         2.357917   -0.23675   5.218832 H        1 UNL1     0.0576
     64 H         0.035308   -1.712784   6.605767 H        1 UNL1     0.0615
     65 H         3.138503   -1.842056   6.939425 H        1 UNL1     0.0622
     66 H         5.075086   2.417677   -1.812121 H        1 UNL1     0.0645
     67 H         3.507278   1.33973   -2.75032 H        1 UNL1     0.0362
     68 H         2.39715   3.190848   -3.146495 H        1 UNL1     0.0741
     69 H         0.204733   3.950964   -1.865121 H        1 UNL1     0.0359
     70 H         0.090192   4.144911   0.359463 H        1 UNL1     0.0600
     71 H         -1.073837   2.340413   0.665296 H        1 UNL1     0.0348
     72 H         0.568966   1.971178   2.425101 H        1 UNL1     0.0602
     73 H         4.9019   0.955997   0.074264 H        1 UNL1     0.0628
     74 H         4.687381   3.652314   1.538668 H        1 UNL1     0.1022
     75 H         2.374983   -5.186628   9.371528 H        1 UNL1     0.0279
     76 H         0.935326   -4.262412   9.534352 H        1 UNL1     0.0279
     77 H         1.215691   -5.354972   8.119077 H        1 UNL1     0.0279
     78 H         3.391874   -5.511271   6.865849 H        1 UNL1     0.1553
     79 H         2.091664   -4.873258   5.513585 H        1 UNL1     0.1484
     80 H         2.007659   -4.09944   1.794225 H        1 UNL1     0.0317
     81 H         3.441799   -4.711937   2.605406 H        1 UNL1     0.0317
     82 H         2.056836   -6.264401   4.007345 H        1 UNL1     0.0428
     83 H         1.825272   -6.514637   2.29111 H        1 UNL1     0.0428
     84 H         -1.154357   -4.238851   4.302515 H        1 UNL1     0.0428
     85 H         0.138226   -4.844854   5.277764 H        1 UNL1     0.0428
     86 H         0.28635   -2.460404   4.558523 H        1 UNL1     0.0317
     87 H         0.299413   -2.857391   2.901845 H        1 UNL1     0.0317
     88 H         -0.931553   -6.848792   4.332159 H        1 UNL1     0.0429
     89 H         -1.492111   -6.594348   2.67769 H        1 UNL1     0.0429
     90 H         0.633944   -8.41955   3.769243 H        1 UNL1     0.0308
     91 H         -1.264822   -8.467436   1.3632 H        1 UNL1     0.0233
     92 H         -0.021853   -9.71389   1.640461 H        1 UNL1     0.0233
     93 H         -1.326076   -9.498002   2.788066 H        1 UNL1     0.0233
     94 H         1.092589   -7.053926   1.107783 H        1 UNL1     0.0233
     95 H         2.004844   -6.757269   2.595773 H        1 UNL1     0.0233
     96 H         2.072849   -8.354325   1.81553 H        1 UNL1     0.0233
     97 H         9.541478   0.635039   5.119333 H        1 UNL1     0.0280
     98 H         10.200165   -0.970309   5.281124 H        1 UNL1     0.0280
     99 H         9.75654   -0.35244   3.662123 H        1 UNL1     0.0280
     100 H         8.903224   -3.588291   6.042364 H        1 UNL1     0.2922
     101 H         0.772103   2.360757   5.467198 H        1 UNL1     0.0236
     102 H         -0.930042   1.944023   5.025501 H        1 UNL1     0.0236
     103 H         0.071878   2.891238   3.969833 H        1 UNL1     0.0236
     104 H         -1.789804   1.324516   1.690214 H        1 UNL1     0.2098
     105 H         -1.034103   0.950761   -1.018564 H        1 UNL1     0.0234
     106 H         0.746901   0.984906   -1.152563 H        1 UNL1     0.0234
     107 H         0.0   0.0   0.0 H        1 UNL1     0.0234
     108 H         1.907857   4.529664   1.17974 H        1 UNL1     0.2098
     109 H         3.690639   -0.311155   -1.157337 H        1 UNL1     0.0234
     110 H         2.480552   0.445328   -0.072798 H        1 UNL1     0.0234
     111 H         1.997382   -0.217824   -1.594514 H        1 UNL1     0.0234
     112 H         -0.029282   3.892877   -4.375895 H        1 UNL1     0.0342
     113 H         -1.753989   3.38162   -4.423198 H        1 UNL1     0.0342
     114 H         -1.044583   3.993887   -2.926588 H        1 UNL1     0.0342
     115 H         2.491271   5.431121   -0.900386 H        1 UNL1     0.0234
     116 H         2.501566   5.102724   -2.636138 H        1 UNL1     0.0234
     117 H         1.158437   5.937406   -1.828082 H        1 UNL1     0.0234
     118 H         5.871615   -0.834634   0.962568 H        1 UNL1     0.0309
     119 H         6.661931   0.631072   0.302895 H        1 UNL1     0.0309
     120 H         7.525621   -0.499655   1.321547 H        1 UNL1     0.0309
     121 H         5.596946   5.09636   -1.331624 H        1 UNL1     0.0524
     122 H         5.001401   4.239091   -2.758954 H        1 UNL1     0.0524
     123 H         4.075648   5.61455   -2.10716 H        1 UNL1     0.0524
@<TRIPOS>BOND
     1     1     2    1
     2     1    42    1
     3     2     3    2
     4     3     4    1
     5     4     5    2
     6     5     7    1
     7     6    75    1
     8     6    76    1
     9     6    77    1
    10     7     9   am
    11     9    10    1
    12    10    11    2
    13    10    43    1
    14    11    14    1
    15    11    15    1
    16    12    13   ar
    17    12    27   ar
    18    12    43    1
    19    13    14    1
    20    13    30   ar
    21    14    17    2
    22    15    16    1
    23    16    17    1
    24    16    18    1
    25    16    22    1
    26    18    19    1
    27    19    20    1
    28    20    21    1
    29    21    22    1
    30    23    24    1
    31    23    88    1
    32    23    89    1
    33    24    25    1
    34    24    26    1
    35    24    90    1
    36    25    91    1
    37    25    92    1
    38    25    93    1
    39    26    94    1
    40    26    95    1
    41    26    96    1
    42    27    28   ar
    43    28    29   ar
    44    29    30   ar
    45    29    31    1
    46    30    33    1
    47    31    32    1
    48    32    33    1
    49    32    35    1
    50    34    97    1
    51    34    98    1
    52    34    99    1
    53    35    61    1
    54    36    37    1
    55    36    60    1
    56    37    38    1
    57    38    39    1
    58    39    40    1
    59    40    41    1
    60    41    42    1
    61    45   100    1
    62    47   101    1
    63    47   102    1
    64    47   103    1
    65    48   104    1
    66    49   105    1
    67    49   106    1
    68    49   107    1
    69    50   108    1
    70    51    59    1
    71    52   109    1
    72    52   110    1
    73    52   111    1
    74    53    54    1
    75    54    55    2
    76    54    56    1
    77    56   112    1
    78    56   113    1
    79    56   114    1
    80    57   115    1
    81    57   116    1
    82    57   117    1
    83    58   118    1
    84    58   119    1
    85    58   120    1
    86    59   121    1
    87    59   122    1
    88    59   123    1
    89    60    61    2
    90     1    47    1
    91     1    62    1
    92     2    63    1
    93     3    64    1
    94     4    65    1
    95     5     6    1
    96     7     8    2
    97     9    78    1
    98    15    79    1
    99    18    80    1
   100    18    81    1
   101    19    82    1
   102    19    83    1
   103    20    23    1
   104    21    84    1
   105    21    85    1
   106    22    86    1
   107    22    87    1
   108    27    45    1
   109    28    34    1
   110    32    58    1
   111    33    46    2
   112    36    51    1
   113    36    66    1
   114    37    52    1
   115    37    67    1
   116    38    53    1
   117    38    68    1
   118    42    48    1
   119    42    72    1
   120    43    44    2
   121    60    73    1
   122    61    74    1
   123    39    69    1
   124    39    57    1
   125    40    70    1
   126    40    50    1
   127    41    71    1
   128    41    49    1
