@<TRIPOS>MOLECULE
*****
 123 128 0 0 0
SMALL
GASTEIGER

@<TRIPOS>ATOM
     1 C         3.439427   0.619232   -2.198227 C.3        1 UNL1     0.0009
     2 C         3.952405   2.151443   -3.107195 C.2        1 UNL1     -0.0787
     3 C         4.011099   2.92727   -4.328134 C.2        1 UNL1     -0.0649
     4 C         4.582114   4.508271   -4.529966 C.2        1 UNL1     -0.0542
     5 C         4.556328   5.654685   -5.361921 C.2        1 UNL1     0.0115
     6 C         4.109112   6.190243   -6.749904 C.3        1 UNL1     -0.0348
     7 C         5.020491   7.066156   -4.754227 C.2        1 UNL1     0.2441
     8 O         6.116538   7.56003   -4.980711 O.2        1 UNL1     -0.2702
     9 N         3.992284   7.818208   -4.159786 N.am        1 UNL1     -0.2772
     10 C         3.85342   7.477874   -2.83381 C.2        1 UNL1     0.1049
     11 C         3.125555   6.405161   -2.58138 C.2        1 UNL1     0.0801
     12 C         5.157314   7.136304   -0.726555 C.ar        1 UNL1     0.0753
     13 C         4.487148   5.877102   -0.608677 C.ar        1 UNL1     0.0305
     14 C         3.353361   5.53083   -1.462887 C.2        1 UNL1     0.0924
     15 N         2.317289   5.699583   -3.390944 N.pl3        1 UNL1     -0.3170
     16 C         1.62571   4.729326   -2.584362 C.3        1 UNL1     0.1275
     17 N         2.559283   4.464441   -1.428508 N.2        1 UNL1     -0.2557
     18 C         0.403394   5.42329   -1.991015 C.3        1 UNL1     0.0016
     19 C         -0.42618   6.001896   -3.126185 C.3        1 UNL1     0.0026
     20 N         -0.819458   4.919095   -4.017197 N.3        1 UNL1     -0.3018
     21 C         0.288489   4.151864   -4.590064 C.3        1 UNL1     0.0026
     22 C         1.105747   3.576004   -3.432321 C.3        1 UNL1     0.0016
     23 C         -1.851835   5.308794   -4.956866 C.3        1 UNL1     0.0012
     24 C         -2.479642   6.648807   -4.54216 C.3        1 UNL1     -0.0339
     25 C         -3.412556   7.195038   -5.635486 C.3        1 UNL1     -0.0615
     26 C         -3.20261   6.496668   -3.215152 C.3        1 UNL1     -0.0615
     27 C         6.157121   7.508414   0.169011 C.ar        1 UNL1     0.1347
     28 C         6.543668   6.725294   1.242022 C.ar        1 UNL1     0.0342
     29 C         5.904519   5.469067   1.309449 C.ar        1 UNL1     0.1435
     30 C         4.926837   5.067647   0.398284 C.ar        1 UNL1     0.0774
     31 O         6.092308   4.638177   2.357954 O.3        1 UNL1     -0.4436
     32 C         4.971831   3.741738   2.315507 C.3        1 UNL1     0.3143
     33 C         4.495252   3.771124   0.877376 C.2        1 UNL1     0.2504
     34 C         7.422312   7.162005   2.381042 C.3        1 UNL1     -0.0327
     35 O         5.472568   2.422017   2.562187 O.2        1 UNL1     -0.4528
     36 C         2.649638   0.538962   4.263146 C.3        1 UNL1     0.0854
     37 C         1.177998   0.280604   3.758123 C.3        1 UNL1     0.0236
     38 C         0.738775   -1.261167   3.716064 C.3        1 UNL1     0.1131
     39 C         1.662774   -2.321295   2.991754 C.3        1 UNL1     0.0200
     40 C         2.353288   -1.970717   1.51435 C.3        1 UNL1     0.0661
     41 C         1.539537   -1.359683   0.157126 C.3        1 UNL1     0.0091
     42 C         2.120482   -0.238944   -1.173983 C.3        1 UNL1     0.0661
     43 C         4.690503   8.07109   -1.780368 C.2        1 UNL1     0.2131
     44 O         4.882036   9.273139   -1.746743 O.2        1 UNL1     -0.2851
     45 O         6.790912   8.730996   -0.043219 O.3        1 UNL1     -0.5056
     46 O         3.910682   2.90951   0.259515 O.2        1 UNL1     -0.2836
     47 C         4.367867   -0.566904   -2.57381 C.3        1 UNL1     -0.0566
     48 O         1.578277   -1.075781   -2.271632 O.3        1 UNL1     -0.3909
     49 C         0.176652   -0.864639   0.587208 C.3        1 UNL1     -0.0577
     50 O         3.584098   -1.296808   1.68369 O.3        1 UNL1     -0.3910
     51 O         3.448391   -0.608151   4.446331 O.3        1 UNL1     -0.3753
     52 C         0.758442   1.29509   2.644687 C.3        1 UNL1     -0.0564
     53 O         -0.742233   -1.460133   3.576943 O.3        1 UNL1     -0.4608
     54 C         -1.691268   -0.479207   3.699608 C.2        1 UNL1     0.3042
     55 O         -1.559134   0.626621   4.222603 O.2        1 UNL1     -0.2512
     56 C         -3.003271   -0.827959   3.056386 C.3        1 UNL1     0.0332
     57 C         2.590669   -2.994298   4.107215 C.3        1 UNL1     -0.0567
     58 C         3.879372   4.364112   3.215904 C.3        1 UNL1     0.0210
     59 C         4.788631   -0.487303   3.971969 C.3        1 UNL1     0.0372
     60 C         3.442418   1.48585   3.432445 C.2        1 UNL1     -0.0208
     61 C         4.699284   1.40706   2.993328 C.2        1 UNL1     0.0882
     62 H         3.844257   1.053752   -1.276264 H        1 UNL1     0.0365
     63 H         4.50314   2.677606   -2.324691 H        1 UNL1     0.0576
     64 H         3.51542   2.593849   -5.242595 H        1 UNL1     0.0615
     65 H         5.122385   4.710777   -3.601213 H        1 UNL1     0.0622
     66 H         2.524551   1.027033   5.23997 H        1 UNL1     0.0645
     67 H         0.542823   0.667587   4.573818 H        1 UNL1     0.0362
     68 H         0.805069   -1.500634   4.788343 H        1 UNL1     0.0741
     69 H         1.076201   -3.204299   2.775783 H        1 UNL1     0.0359
     70 H         2.638299   -2.989975   1.190404 H        1 UNL1     0.0600
     71 H         1.27544   -2.30699   -0.352598 H        1 UNL1     0.0348
     72 H         3.026973   -0.652467   -0.708591 H        1 UNL1     0.0602
     73 H         2.89049   2.383592   3.303274 H        1 UNL1     0.0628
     74 H         5.311593   0.505618   3.03476 H        1 UNL1     0.1022
     75 H         3.538787   5.408101   -7.306695 H        1 UNL1     0.0279
     76 H         3.415315   7.027918   -6.74612 H        1 UNL1     0.0279
     77 H         4.955059   6.367193   -7.430171 H        1 UNL1     0.0279
     78 H         3.108633   7.615054   -4.622352 H        1 UNL1     0.1553
     79 H         1.946083   6.053449   -4.253451 H        1 UNL1     0.1484
     80 H         -0.171487   4.695879   -1.405224 H        1 UNL1     0.0317
     81 H         0.702093   6.217518   -1.29846 H        1 UNL1     0.0317
     82 H         0.120631   6.784825   -3.672016 H        1 UNL1     0.0428
     83 H         -1.291568   6.493584   -2.680767 H        1 UNL1     0.0428
     84 H         -0.034975   3.296213   -5.190933 H        1 UNL1     0.0428
     85 H         0.886989   4.755678   -5.286141 H        1 UNL1     0.0428
     86 H         1.823058   2.916297   -3.884249 H        1 UNL1     0.0317
     87 H         0.482531   2.90108   -2.833008 H        1 UNL1     0.0317
     88 H         -1.38678   5.431292   -5.943786 H        1 UNL1     0.0429
     89 H         -2.616166   4.527327   -5.056268 H        1 UNL1     0.0429
     90 H         -1.681838   7.380146   -4.366474 H        1 UNL1     0.0308
     91 H         -2.885811   7.308128   -6.587774 H        1 UNL1     0.0233
     92 H         -4.27082   6.533937   -5.77668 H        1 UNL1     0.0233
     93 H         -3.823478   8.179366   -5.380385 H        1 UNL1     0.0233
     94 H         -3.378052   5.437077   -2.999924 H        1 UNL1     0.0233
     95 H         -2.591099   6.908031   -2.407193 H        1 UNL1     0.0233
     96 H         -4.167324   7.011642   -3.224977 H        1 UNL1     0.0233
     97 H         8.323528   6.5606   2.454213 H        1 UNL1     0.0280
     98 H         7.761954   8.199779   2.267354 H        1 UNL1     0.0280
     99 H         6.868603   7.071665   3.329905 H        1 UNL1     0.0280
     100 H         6.997939   9.206229   0.742221 H        1 UNL1     0.2922
     101 H         4.305795   -1.339323   -1.807538 H        1 UNL1     0.0236
     102 H         5.39627   -0.262349   -2.765167 H        1 UNL1     0.0236
     103 H         4.045568   -1.06721   -3.502254 H        1 UNL1     0.0236
     104 H         0.872854   -0.563028   -2.712579 H        1 UNL1     0.2098
     105 H         -0.634438   -1.564282   0.40162 H        1 UNL1     0.0234
     106 H         0.129027   -0.494038   1.611081 H        1 UNL1     0.0234
     107 H         0.0   0.0   0.0 H        1 UNL1     0.0234
     108 H         4.263855   -1.974818   1.862579 H        1 UNL1     0.2098
     109 H         0.308386   2.20711   3.061076 H        1 UNL1     0.0234
     110 H         1.582809   1.565612   1.97612 H        1 UNL1     0.0234
     111 H         0.000469   0.869163   1.973859 H        1 UNL1     0.0234
     112 H         -3.829444   -0.498306   3.693655 H        1 UNL1     0.0342
     113 H         -3.091996   -0.410494   2.05454 H        1 UNL1     0.0342
     114 H         -3.06196   -1.921512   2.967718 H        1 UNL1     0.0342
     115 H         3.634646   -2.661829   4.024972 H        1 UNL1     0.0234
     116 H         2.264473   -2.801845   5.131231 H        1 UNL1     0.0234
     117 H         2.704227   -4.085255   3.985314 H        1 UNL1     0.0234
     118 H         3.183285   3.60288   3.609597 H        1 UNL1     0.0309
     119 H         4.288462   4.941432   4.051098 H        1 UNL1     0.0309
     120 H         3.222109   5.047938   2.667732 H        1 UNL1     0.0309
     121 H         5.367533   -1.300633   4.408686 H        1 UNL1     0.0524
     122 H         4.854689   -0.584285   2.875489 H        1 UNL1     0.0524
     123 H         5.206785   0.470923   4.267001 H        1 UNL1     0.0524
@<TRIPOS>BOND
     1     1     2    1
     2     1    42    1
     3     2     3    2
     4     3     4    1
     5     4     5    2
     6     5     7    1
     7     6    75    1
     8     6    76    1
     9     6    77    1
    10     7     9   am
    11     9    10    1
    12    10    11    2
    13    10    43    1
    14    11    14    1
    15    11    15    1
    16    12    13   ar
    17    12    27   ar
    18    12    43    1
    19    13    14    1
    20    13    30   ar
    21    14    17    2
    22    15    16    1
    23    16    17    1
    24    16    18    1
    25    16    22    1
    26    18    19    1
    27    19    20    1
    28    20    21    1
    29    21    22    1
    30    23    24    1
    31    23    88    1
    32    23    89    1
    33    24    25    1
    34    24    26    1
    35    24    90    1
    36    25    91    1
    37    25    92    1
    38    25    93    1
    39    26    94    1
    40    26    95    1
    41    26    96    1
    42    27    28   ar
    43    28    29   ar
    44    29    30   ar
    45    29    31    1
    46    30    33    1
    47    31    32    1
    48    32    33    1
    49    32    35    1
    50    34    97    1
    51    34    98    1
    52    34    99    1
    53    35    61    1
    54    36    37    1
    55    36    60    1
    56    37    38    1
    57    38    39    1
    58    39    40    1
    59    40    41    1
    60    41    42    1
    61    45   100    1
    62    47   101    1
    63    47   102    1
    64    47   103    1
    65    48   104    1
    66    49   105    1
    67    49   106    1
    68    49   107    1
    69    50   108    1
    70    51    59    1
    71    52   109    1
    72    52   110    1
    73    52   111    1
    74    53    54    1
    75    54    55    2
    76    54    56    1
    77    56   112    1
    78    56   113    1
    79    56   114    1
    80    57   115    1
    81    57   116    1
    82    57   117    1
    83    58   118    1
    84    58   119    1
    85    58   120    1
    86    59   121    1
    87    59   122    1
    88    59   123    1
    89    60    61    2
    90     1    47    1
    91     1    62    1
    92     2    63    1
    93     3    64    1
    94     4    65    1
    95     5     6    1
    96     7     8    2
    97     9    78    1
    98    15    79    1
    99    18    80    1
   100    18    81    1
   101    19    82    1
   102    19    83    1
   103    20    23    1
   104    21    84    1
   105    21    85    1
   106    22    86    1
   107    22    87    1
   108    27    45    1
   109    28    34    1
   110    32    58    1
   111    33    46    2
   112    36    51    1
   113    36    66    1
   114    37    52    1
   115    37    67    1
   116    38    53    1
   117    38    68    1
   118    42    48    1
   119    42    72    1
   120    43    44    2
   121    60    73    1
   122    61    74    1
   123    39    69    1
   124    39    57    1
   125    40    70    1
   126    40    50    1
   127    41    71    1
   128    41    49    1
