@<TRIPOS>MOLECULE
*****
 123 128 0 0 0
SMALL
GASTEIGER

@<TRIPOS>ATOM
     1 C         5.069293   2.057449   0.261617 C.3        1 UNL1     0.0009
     2 C         6.511057   2.71754   -0.698921 C.2        1 UNL1     -0.0787
     3 C         7.824454   2.532221   -1.279172 C.2        1 UNL1     -0.0649
     4 C         8.687315   3.604653   -2.264928 C.2        1 UNL1     -0.0542
     5 C         9.736709   3.725477   -3.20899 C.2        1 UNL1     0.0115
     6 C         10.925818   2.97468   -3.869025 C.3        1 UNL1     -0.0348
     7 C         9.80264   5.035975   -4.133781 C.2        1 UNL1     0.2441
     8 O         10.576718   5.959839   -3.924484 O.2        1 UNL1     -0.2702
     9 N         9.098605   4.937068   -5.346507 N.am        1 UNL1     -0.2772
     10 C         7.789234   5.323446   -5.174512 C.2        1 UNL1     0.1049
     11 C         6.968821   4.404247   -4.69889 C.2        1 UNL1     0.0801
     12 C         6.368225   7.144102   -4.213638 C.ar        1 UNL1     0.0753
     13 C         5.633346   6.11192   -3.547934 C.ar        1 UNL1     0.0305
     14 C         5.828975   4.701148   -3.874282 C.2        1 UNL1     0.0924
     15 N         7.149095   3.081062   -4.54654 N.pl3        1 UNL1     -0.3170
     16 C         5.890145   2.508967   -4.149038 C.3        1 UNL1     0.1275
     17 N         5.174243   3.629784   -3.435612 N.2        1 UNL1     -0.2557
     18 C         5.093496   2.240272   -5.422166 C.3        1 UNL1     0.0016
     19 C         5.924031   1.355253   -6.337886 C.3        1 UNL1     0.0026
     20 N         6.228878   0.114492   -5.63888 N.3        1 UNL1     -0.3018
     21 C         6.941155   0.274859   -4.369505 C.3        1 UNL1     0.0026
     22 C         6.086894   1.163279   -3.4635 C.3        1 UNL1     0.0016
     23 C         6.753895   -0.912738   -6.516262 C.3        1 UNL1     0.0012
     24 C         5.654252   -1.432295   -7.455732 C.3        1 UNL1     -0.0339
     25 C         5.748151   -0.781383   -8.845536 C.3        1 UNL1     -0.0615
     26 C         5.716534   -2.947334   -7.542667 C.3        1 UNL1     -0.0615
     27 C         6.091239   8.489821   -3.984643 C.ar        1 UNL1     0.1347
     28 C         5.080298   8.923709   -3.145722 C.ar        1 UNL1     0.0342
     29 C         4.402481   7.890822   -2.463906 C.ar        1 UNL1     0.1435
     30 C         4.693229   6.539586   -2.655861 C.ar        1 UNL1     0.0774
     31 O         3.320501   8.144983   -1.695967 O.3        1 UNL1     -0.4436
     32 C         2.653518   6.879172   -1.578797 C.3        1 UNL1     0.3143
     33 C         3.726918   5.840621   -1.834608 C.2        1 UNL1     0.2504
     34 C         4.562264   10.331326   -3.04396 C.3        1 UNL1     -0.0327
     35 O         2.250841   6.73484   -0.211219 O.2        1 UNL1     -0.4528
     36 C         -0.894959   4.611533   -0.271212 C.3        1 UNL1     0.0854
     37 C         -1.1112   3.167667   -0.867882 C.3        1 UNL1     0.0236
     38 C         -1.698117   2.090463   0.165028 C.3        1 UNL1     0.1131
     39 C         -1.012029   1.90258   1.577916 C.3        1 UNL1     0.0200
     40 C         0.649961   1.849003   1.709657 C.3        1 UNL1     0.0661
     41 C         1.689664   0.882129   0.781334 C.3        1 UNL1     0.0091
     42 C         3.405862   1.188255   0.21006 C.3        1 UNL1     0.0661
     43 C         7.375055   6.733553   -5.22359 C.2        1 UNL1     0.2131
     44 O         7.772367   7.463794   -6.113325 O.2        1 UNL1     -0.2851
     45 O         6.883269   9.431731   -4.638044 O.3        1 UNL1     -0.5056
     46 O         3.782894   4.699983   -1.432532 O.2        1 UNL1     -0.2836
     47 C         5.416527   1.983608   1.772894 C.3        1 UNL1     -0.0566
     48 O         3.903783   -0.144917   0.627005 O.3        1 UNL1     -0.3909
     49 C         0.921688   0.335897   -0.401602 C.3        1 UNL1     -0.0577
     50 O         1.184954   3.151183   1.835491 O.3        1 UNL1     -0.3910
     51 O         -1.074305   4.735767   1.121567 O.3        1 UNL1     -0.3753
     52 C         -0.010503   2.800399   -1.91599 C.3        1 UNL1     -0.0564
     53 O         -2.219484   0.847548   -0.49502 O.3        1 UNL1     -0.4608
     54 C         -2.418949   -0.358138   0.125034 C.2        1 UNL1     0.3042
     55 O         -1.792036   -1.401884   -0.0522 O.2        1 UNL1     -0.2512
     56 C         -3.500544   -0.326838   1.167092 C.3        1 UNL1     0.0332
     57 C         -1.814158   2.804525   2.627324 C.3        1 UNL1     -0.0567
     58 C         1.619711   6.821505   -2.727468 C.3        1 UNL1     0.0210
     59 C         -1.46528   6.035393   1.561996 C.3        1 UNL1     0.0372
     60 C         0.418117   5.234417   -0.592162 C.2        1 UNL1     -0.0208
     61 C         1.273677   5.897743   0.186785 C.2        1 UNL1     0.0882
     62 H         4.552731   3.012174   0.105493 H        1 UNL1     0.0365
     63 H         6.200334   3.754022   -0.845977 H        1 UNL1     0.0576
     64 H         8.32815   1.563231   -1.257812 H        1 UNL1     0.0615
     65 H         8.150538   4.550631   -2.153218 H        1 UNL1     0.0622
     66 H         -1.652804   5.23242   -0.769424 H        1 UNL1     0.0645
     67 H         -1.95949   3.289407   -1.563685 H        1 UNL1     0.0362
     68 H         -2.67605   2.550186   0.374373 H        1 UNL1     0.0741
     69 H         -1.313214   0.947323   1.986793 H        1 UNL1     0.0359
     70 H         0.747018   1.411121   2.721536 H        1 UNL1     0.0600
     71 H         1.75288   -0.012786   1.431016 H        1 UNL1     0.0348
     72 H         3.237397   1.879783   1.048346 H        1 UNL1     0.0602
     73 H         0.574993   5.1975   -1.641579 H        1 UNL1     0.0628
     74 H         1.215988   5.93389   1.27518 H        1 UNL1     0.1022
     75 H         10.988016   1.92691   -3.487786 H        1 UNL1     0.0279
     76 H         10.870324   2.829362   -4.945534 H        1 UNL1     0.0279
     77 H         11.903668   3.374933   -3.56356 H        1 UNL1     0.0279
     78 H         9.093542   3.969037   -5.661101 H        1 UNL1     0.1553
     79 H         7.857349   2.556551   -5.026329 H        1 UNL1     0.1484
     80 H         4.143868   1.760979   -5.155237 H        1 UNL1     0.0317
     81 H         4.839952   3.176945   -5.930112 H        1 UNL1     0.0317
     82 H         6.843981   1.860192   -6.667493 H        1 UNL1     0.0428
     83 H         5.338049   1.177617   -7.240172 H        1 UNL1     0.0428
     84 H         7.087112   -0.66425   -3.826751 H        1 UNL1     0.0428
     85 H         7.960092   0.658261   -4.518121 H        1 UNL1     0.0428
     86 H         6.571047   1.149524   -2.504649 H        1 UNL1     0.0317
     87 H         5.121739   0.680449   -3.267424 H        1 UNL1     0.0317
     88 H         7.551665   -0.467132   -7.124778 H        1 UNL1     0.0429
     89 H         7.205995   -1.733058   -5.944024 H        1 UNL1     0.0429
     90 H         4.673555   -1.197031   -7.025503 H        1 UNL1     0.0308
     91 H         6.72896   -0.95227   -9.299314 H        1 UNL1     0.0233
     92 H         4.973102   -1.172853   -9.508603 H        1 UNL1     0.0233
     93 H         5.599401   0.304607   -8.808985 H        1 UNL1     0.0233
     94 H         5.068747   -3.306293   -8.349734 H        1 UNL1     0.0233
     95 H         6.738759   -3.267215   -7.763335 H        1 UNL1     0.0233
     96 H         5.394635   -3.414259   -6.60761 H        1 UNL1     0.0233
     97 H         3.732888   10.410917   -2.347517 H        1 UNL1     0.0280
     98 H         5.328072   11.028849   -2.680291 H        1 UNL1     0.0280
     99 H         4.215638   10.669495   -4.034206 H        1 UNL1     0.0280
     100 H         6.402899   10.067718   -5.138431 H        1 UNL1     0.2922
     101 H         4.545232   1.646987   2.334309 H        1 UNL1     0.0236
     102 H         5.821104   2.915772   2.165796 H        1 UNL1     0.0236
     103 H         6.193288   1.229487   1.982982 H        1 UNL1     0.0236
     104 H         4.282613   -0.051318   1.522939 H        1 UNL1     0.2098
     105 H         0.700962   1.070668   -1.171798 H        1 UNL1     0.0234
     106 H         1.350054   -0.561684   -0.847448 H        1 UNL1     0.0234
     107 H         0.0   -0.0   0.0 H        1 UNL1     0.0234
     108 H         1.008455   3.619608   0.996924 H        1 UNL1     0.2098
     109 H         1.000734   2.83657   -1.487267 H        1 UNL1     0.0234
     110 H         -0.173754   1.825526   -2.387916 H        1 UNL1     0.0234
     111 H         -0.001855   3.505551   -2.757792 H        1 UNL1     0.0234
     112 H         -3.593931   -1.310983   1.636224 H        1 UNL1     0.0342
     113 H         -3.327809   0.447004   1.913533 H        1 UNL1     0.0342
     114 H         -4.452305   -0.10045   0.66703 H        1 UNL1     0.0342
     115 H         -2.874163   2.520902   2.683319 H        1 UNL1     0.0234
     116 H         -1.411086   2.770328   3.641431 H        1 UNL1     0.0234
     117 H         -1.892527   3.863735   2.327535 H        1 UNL1     0.0234
     118 H         0.682476   7.34445   -2.46838 H        1 UNL1     0.0309
     119 H         2.003627   7.22111   -3.671463 H        1 UNL1     0.0309
     120 H         1.287664   5.800094   -2.943269 H        1 UNL1     0.0309
     121 H         -0.650173   6.720758   1.331276 H        1 UNL1     0.0524
     122 H         -2.364678   6.401286   1.039269 H        1 UNL1     0.0524
     123 H         -1.65743   6.027896   2.631162 H        1 UNL1     0.0524
@<TRIPOS>BOND
     1     1     2    1
     2     1    42    1
     3     2     3    2
     4     3     4    1
     5     4     5    2
     6     5     7    1
     7     6    75    1
     8     6    76    1
     9     6    77    1
    10     7     9   am
    11     9    10    1
    12    10    11    2
    13    10    43    1
    14    11    14    1
    15    11    15    1
    16    12    13   ar
    17    12    27   ar
    18    12    43    1
    19    13    14    1
    20    13    30   ar
    21    14    17    2
    22    15    16    1
    23    16    17    1
    24    16    18    1
    25    16    22    1
    26    18    19    1
    27    19    20    1
    28    20    21    1
    29    21    22    1
    30    23    24    1
    31    23    88    1
    32    23    89    1
    33    24    25    1
    34    24    26    1
    35    24    90    1
    36    25    91    1
    37    25    92    1
    38    25    93    1
    39    26    94    1
    40    26    95    1
    41    26    96    1
    42    27    28   ar
    43    28    29   ar
    44    29    30   ar
    45    29    31    1
    46    30    33    1
    47    31    32    1
    48    32    33    1
    49    32    35    1
    50    34    97    1
    51    34    98    1
    52    34    99    1
    53    35    61    1
    54    36    37    1
    55    36    60    1
    56    37    38    1
    57    38    39    1
    58    39    40    1
    59    40    41    1
    60    41    42    1
    61    45   100    1
    62    47   101    1
    63    47   102    1
    64    47   103    1
    65    48   104    1
    66    49   105    1
    67    49   106    1
    68    49   107    1
    69    50   108    1
    70    51    59    1
    71    52   109    1
    72    52   110    1
    73    52   111    1
    74    53    54    1
    75    54    55    2
    76    54    56    1
    77    56   112    1
    78    56   113    1
    79    56   114    1
    80    57   115    1
    81    57   116    1
    82    57   117    1
    83    58   118    1
    84    58   119    1
    85    58   120    1
    86    59   121    1
    87    59   122    1
    88    59   123    1
    89    60    61    2
    90     1    47    1
    91     1    62    1
    92     2    63    1
    93     3    64    1
    94     4    65    1
    95     5     6    1
    96     7     8    2
    97     9    78    1
    98    15    79    1
    99    18    80    1
   100    18    81    1
   101    19    82    1
   102    19    83    1
   103    20    23    1
   104    21    84    1
   105    21    85    1
   106    22    86    1
   107    22    87    1
   108    27    45    1
   109    28    34    1
   110    32    58    1
   111    33    46    2
   112    36    51    1
   113    36    66    1
   114    37    52    1
   115    37    67    1
   116    38    53    1
   117    38    68    1
   118    42    48    1
   119    42    72    1
   120    43    44    2
   121    60    73    1
   122    61    74    1
   123    39    69    1
   124    39    57    1
   125    40    70    1
   126    40    50    1
   127    41    71    1
   128    41    49    1
