@<TRIPOS>MOLECULE
*****
 123 128 0 0 0
SMALL
GASTEIGER

@<TRIPOS>ATOM
     1 C         -4.921032   -1.417629   -1.522632 C.3        1 UNL1     0.0009
     2 C         -6.596881   -1.971473   -0.955336 C.2        1 UNL1     -0.0787
     3 C         -7.518801   -3.03317   -0.610504 C.2        1 UNL1     -0.0649
     4 C         -9.079488   -2.889005   0.029676 C.2        1 UNL1     -0.0542
     5 C         -10.112241   -3.556882   0.732839 C.2        1 UNL1     0.0115
     6 C         -10.581922   -4.940391   1.26069 C.3        1 UNL1     -0.0348
     7 C         -11.26759   -2.685992   1.428331 C.2        1 UNL1     0.2441
     8 O         -12.384068   -2.555188   0.945742 O.2        1 UNL1     -0.2702
     9 N         -10.99744   -2.299557   2.752656 N.am        1 UNL1     -0.2772
     10 C         -10.311298   -1.107057   2.774449 C.2        1 UNL1     0.1049
     11 C         -9.004503   -1.184177   2.599633 C.2        1 UNL1     0.0801
     12 C         -10.33785   1.214025   1.842135 C.ar        1 UNL1     0.0753
     13 C         -8.968748   1.001313   1.483078 C.ar        1 UNL1     0.0305
     14 C         -8.221375   -0.156556   1.968695 C.2        1 UNL1     0.0924
     15 N         -8.193313   -2.255804   2.610329 N.pl3        1 UNL1     -0.3170
     16 C         -6.836823   -1.780771   2.543007 C.3        1 UNL1     0.1275
     17 N         -6.934703   -0.459143   1.820897 N.2        1 UNL1     -0.2557
     18 C         -6.401103   -1.453476   3.968043 C.3        1 UNL1     0.0016
     19 C         -6.590871   -2.690814   4.830929 C.3        1 UNL1     0.0026
     20 N         -5.793438   -3.775407   4.275245 N.3        1 UNL1     -0.3018
     21 C         -6.097783   -4.121935   2.885403 C.3        1 UNL1     0.0026
     22 C         -5.896156   -2.865914   2.035901 C.3        1 UNL1     0.0016
     23 C         -5.66541   -4.901428   5.178754 C.3        1 UNL1     0.0012
     24 C         -6.806908   -4.898876   6.207702 C.3        1 UNL1     -0.0339
     25 C         -8.139478   -4.475308   5.568246 C.3        1 UNL1     -0.0615
     26 C         -6.913192   -6.261057   6.870988 C.3        1 UNL1     -0.0615
     27 C         -11.007437   2.379169   1.475786 C.ar        1 UNL1     0.1347
     28 C         -10.403597   3.41592   0.786891 C.ar        1 UNL1     0.0342
     29 C         -9.069815   3.16345   0.401603 C.ar        1 UNL1     0.1435
     30 C         -8.397298   1.985754   0.730193 C.ar        1 UNL1     0.0774
     31 O         -8.311104   4.118639   -0.178896 O.3        1 UNL1     -0.4436
     32 C         -6.959349   3.676418   0.016218 C.3        1 UNL1     0.3143
     33 C         -7.057713   2.177394   0.214875 C.2        1 UNL1     0.2504
     34 C         -10.978016   4.789764   0.580265 C.3        1 UNL1     -0.0327
     35 O         -6.259579   3.888925   -1.216022 O.2        1 UNL1     -0.4528
     36 C         -2.646052   4.549786   -0.260105 C.3        1 UNL1     0.0854
     37 C         -1.654048   3.647389   0.570034 C.3        1 UNL1     0.0236
     38 C         -0.270479   3.309171   -0.166911 C.3        1 UNL1     0.1131
     39 C         -0.285873   2.734537   -1.640623 C.3        1 UNL1     0.0200
     40 C         -1.371605   1.543896   -2.0719 C.3        1 UNL1     0.0661
     41 C         -1.653778   0.101995   -1.224015 C.3        1 UNL1     0.0091
     42 C         -3.187493   -0.886595   -1.034774 C.3        1 UNL1     0.0661
     43 C         -10.995006   0.192372   2.694562 C.2        1 UNL1     0.2131
     44 O         -11.977188   0.417031   3.378364 O.2        1 UNL1     -0.2851
     45 O         -12.351868   2.487635   1.825324 O.3        1 UNL1     -0.5056
     46 O         -6.225669   1.329905   -0.020322 O.2        1 UNL1     -0.2836
     47 C         -4.755729   -1.672137   -3.045091 C.3        1 UNL1     -0.0566
     48 O         -2.527589   -2.17927   -1.339134 O.3        1 UNL1     -0.3909
     49 C         -1.027852   0.212411   0.148398 C.3        1 UNL1     -0.0577
     50 O         -2.599281   2.110442   -2.483676 O.3        1 UNL1     -0.3910
     51 O         -2.278063   4.800552   -1.59769 O.3        1 UNL1     -0.3753
     52 C         -2.414776   2.590542   1.435665 C.3        1 UNL1     -0.0564
     53 O         0.781575   2.761585   0.752686 O.3        1 UNL1     -0.4608
     54 C         2.132847   2.939941   0.610611 C.2        1 UNL1     0.3042
     55 O         2.948361   3.203144   1.493504 O.2        1 UNL1     -0.2512
     56 C         2.623842   2.723113   -0.792465 C.3        1 UNL1     0.0332
     57 C         -0.095841   3.967815   -2.641166 C.3        1 UNL1     -0.0567
     58 C         -6.47335   4.32347   1.334042 C.3        1 UNL1     0.0210
     59 C         -2.321607   3.660872   -2.455067 C.3        1 UNL1     0.0372
     60 C         -4.056627   4.075618   -0.28467 C.2        1 UNL1     -0.0208
     61 C         -4.91817   3.977712   -1.298032 C.2        1 UNL1     0.0882
     62 H         -5.249041   -0.376893   -1.413127 H        1 UNL1     0.0365
     63 H         -7.121214   -1.014907   -0.90506 H        1 UNL1     0.0576
     64 H         -7.203903   -4.078768   -0.584601 H        1 UNL1     0.0615
     65 H         -9.324425   -1.833412   -0.115965 H        1 UNL1     0.0622
     66 H         -2.660053   5.509488   0.275454 H        1 UNL1     0.0645
     67 H         -1.31218   4.30627   1.387079 H        1 UNL1     0.0362
     68 H         0.144574   4.324873   -0.254109 H        1 UNL1     0.0741
     69 H         0.669454   2.268715   -1.842537 H        1 UNL1     0.0359
     70 H         -0.902625   1.188685   -3.00942 H        1 UNL1     0.0600
     71 H         -0.935639   -0.567504   -1.736855 H        1 UNL1     0.0348
     72 H         -3.343698   -0.250632   -1.918215 H        1 UNL1     0.0602
     73 H         -4.38756   3.912269   0.710844 H        1 UNL1     0.0628
     74 H         -4.646355   4.072571   -2.349867 H        1 UNL1     0.1022
     75 H         -10.702227   -5.66172   0.416743 H        1 UNL1     0.0279
     76 H         -9.896314   -5.465629   1.921852 H        1 UNL1     0.0279
     77 H         -11.601972   -4.914976   1.67124 H        1 UNL1     0.0279
     78 H         -10.409315   -2.999591   3.200025 H        1 UNL1     0.1553
     79 H         -8.440861   -3.137671   3.020164 H        1 UNL1     0.1484
     80 H         -5.353152   -1.130329   3.956177 H        1 UNL1     0.0317
     81 H         -6.982205   -0.617896   4.372737 H        1 UNL1     0.0317
     82 H         -7.650445   -2.976563   4.905512 H        1 UNL1     0.0428
     83 H         -6.275935   -2.434798   5.843017 H        1 UNL1     0.0428
     84 H         -5.432172   -4.883534   2.467384 H        1 UNL1     0.0428
     85 H         -7.100706   -4.559014   2.783301 H        1 UNL1     0.0428
     86 H         -5.996873   -3.187085   1.015757 H        1 UNL1     0.0317
     87 H         -4.851714   -2.536384   2.096289 H        1 UNL1     0.0317
     88 H         -5.730718   -5.823593   4.586605 H        1 UNL1     0.0429
     89 H         -4.685883   -4.905932   5.674011 H        1 UNL1     0.0429
     90 H         -6.564955   -4.192725   7.010835 H        1 UNL1     0.0308
     91 H         -8.934545   -4.403347   6.316439 H        1 UNL1     0.0233
     92 H         -8.03603   -3.513128   5.06118 H        1 UNL1     0.0233
     93 H         -8.482272   -5.186735   4.807195 H        1 UNL1     0.0233
     94 H         -7.520545   -6.934138   6.256236 H        1 UNL1     0.0233
     95 H         -5.918992   -6.704571   6.975021 H        1 UNL1     0.0233
     96 H         -7.37254   -6.188194   7.860765 H        1 UNL1     0.0233
     97 H         -10.622061   5.246277   -0.338497 H        1 UNL1     0.0280
     98 H         -12.073009   4.773159   0.502989 H        1 UNL1     0.0280
     99 H         -10.69146   5.440141   1.422874 H        1 UNL1     0.0280
     100 H         -12.505306   2.711358   2.726449 H        1 UNL1     0.2922
     101 H         -3.831921   -1.213016   -3.396435 H        1 UNL1     0.0236
     102 H         -5.618579   -1.353678   -3.629092 H        1 UNL1     0.0236
     103 H         -4.640633   -2.744425   -3.275621 H        1 UNL1     0.0236
     104 H         -3.084917   -2.648866   -1.990161 H        1 UNL1     0.2098
     105 H         -1.102105   1.199505   0.597779 H        1 UNL1     0.0234
     106 H         -1.348132   -0.550641   0.857693 H        1 UNL1     0.0234
     107 H         0.0   0.0   0.0 H        1 UNL1     0.0234
     108 H         -3.132819   1.392762   -2.876157 H        1 UNL1     0.2098
     109 H         -2.974506   1.873198   0.81936 H        1 UNL1     0.0234
     110 H         -1.760015   2.047888   2.125997 H        1 UNL1     0.0234
     111 H         -3.158573   3.063578   2.090607 H        1 UNL1     0.0234
     112 H         3.707459   2.869289   -0.83431 H        1 UNL1     0.0342
     113 H         2.346771   1.742449   -1.176358 H        1 UNL1     0.0342
     114 H         2.156921   3.4781   -1.439878 H        1 UNL1     0.0342
     115 H         -0.183408   3.658573   -3.691828 H        1 UNL1     0.0234
     116 H         -0.802719   4.783968   -2.479093 H        1 UNL1     0.0234
     117 H         0.92291   4.39198   -2.628077 H        1 UNL1     0.0234
     118 H         -7.312354   4.699358   1.945423 H        1 UNL1     0.0309
     119 H         -5.860132   3.650978   1.942253 H        1 UNL1     0.0309
     120 H         -5.864457   5.218054   1.163528 H        1 UNL1     0.0309
     121 H         -2.435096   4.021319   -3.477102 H        1 UNL1     0.0524
     122 H         -1.391609   3.069805   -2.412859 H        1 UNL1     0.0524
     123 H         -3.158206   3.021417   -2.188057 H        1 UNL1     0.0524
@<TRIPOS>BOND
     1     1     2    1
     2     1    42    1
     3     2     3    2
     4     3     4    1
     5     4     5    2
     6     5     7    1
     7     6    75    1
     8     6    76    1
     9     6    77    1
    10     7     9   am
    11     9    10    1
    12    10    11    2
    13    10    43    1
    14    11    14    1
    15    11    15    1
    16    12    13   ar
    17    12    27   ar
    18    12    43    1
    19    13    14    1
    20    13    30   ar
    21    14    17    2
    22    15    16    1
    23    16    17    1
    24    16    18    1
    25    16    22    1
    26    18    19    1
    27    19    20    1
    28    20    21    1
    29    21    22    1
    30    23    24    1
    31    23    88    1
    32    23    89    1
    33    24    25    1
    34    24    26    1
    35    24    90    1
    36    25    91    1
    37    25    92    1
    38    25    93    1
    39    26    94    1
    40    26    95    1
    41    26    96    1
    42    27    28   ar
    43    28    29   ar
    44    29    30   ar
    45    29    31    1
    46    30    33    1
    47    31    32    1
    48    32    33    1
    49    32    35    1
    50    34    97    1
    51    34    98    1
    52    34    99    1
    53    35    61    1
    54    36    37    1
    55    36    60    1
    56    37    38    1
    57    38    39    1
    58    39    40    1
    59    40    41    1
    60    41    42    1
    61    45   100    1
    62    47   101    1
    63    47   102    1
    64    47   103    1
    65    48   104    1
    66    49   105    1
    67    49   106    1
    68    49   107    1
    69    50   108    1
    70    51    59    1
    71    52   109    1
    72    52   110    1
    73    52   111    1
    74    53    54    1
    75    54    55    2
    76    54    56    1
    77    56   112    1
    78    56   113    1
    79    56   114    1
    80    57   115    1
    81    57   116    1
    82    57   117    1
    83    58   118    1
    84    58   119    1
    85    58   120    1
    86    59   121    1
    87    59   122    1
    88    59   123    1
    89    60    61    2
    90     1    47    1
    91     1    62    1
    92     2    63    1
    93     3    64    1
    94     4    65    1
    95     5     6    1
    96     7     8    2
    97     9    78    1
    98    15    79    1
    99    18    80    1
   100    18    81    1
   101    19    82    1
   102    19    83    1
   103    20    23    1
   104    21    84    1
   105    21    85    1
   106    22    86    1
   107    22    87    1
   108    27    45    1
   109    28    34    1
   110    32    58    1
   111    33    46    2
   112    36    51    1
   113    36    66    1
   114    37    52    1
   115    37    67    1
   116    38    53    1
   117    38    68    1
   118    42    48    1
   119    42    72    1
   120    43    44    2
   121    60    73    1
   122    61    74    1
   123    39    69    1
   124    39    57    1
   125    40    70    1
   126    40    50    1
   127    41    71    1
   128    41    49    1
