@<TRIPOS>MOLECULE
*****
 123 128 0 0 0
SMALL
GASTEIGER

@<TRIPOS>ATOM
     1 C         4.959889   2.323501   -0.010647 C.3        1 UNL1     0.0009
     2 C         6.409468   2.846337   -1.041375 C.2        1 UNL1     -0.0787
     3 C         7.752261   2.613756   -1.530108 C.2        1 UNL1     -0.0649
     4 C         8.607021   3.505012   -2.688299 C.2        1 UNL1     -0.0542
     5 C         9.687768   3.483989   -3.604062 C.2        1 UNL1     0.0115
     6 C         10.934401   2.675961   -4.058286 C.3        1 UNL1     -0.0348
     7 C         9.734155   4.579754   -4.776298 C.2        1 UNL1     0.2441
     8 O         10.458041   5.565163   -4.737777 O.2        1 UNL1     -0.2702
     9 N         9.085133   4.199597   -5.963901 N.am        1 UNL1     -0.2772
     10 C         7.75424   4.54561   -5.915743 C.2        1 UNL1     0.1049
     11 C         6.955971   3.702199   -5.286739 C.2        1 UNL1     0.0801
     12 C         6.217213   6.449121   -5.394658 C.ar        1 UNL1     0.0753
     13 C         5.501501   5.538419   -4.553833 C.ar        1 UNL1     0.0305
     14 C         5.771592   4.102597   -4.576595 C.2        1 UNL1     0.0924
     15 N         7.187398   2.448929   -4.859791 N.pl3        1 UNL1     -0.3170
     16 C         5.939428   1.906526   -4.39222 C.3        1 UNL1     0.1275
     17 N         5.14685   3.11134   -3.947284 N.2        1 UNL1     -0.2557
     18 C         5.207822   1.343326   -5.606823 C.3        1 UNL1     0.0016
     19 C         6.112797   0.333592   -6.294608 C.3        1 UNL1     0.0026
     20 N         6.442693   -0.721161   -5.346086 N.3        1 UNL1     -0.3018
     21 C         7.094952   -0.268936   -4.115468 C.3        1 UNL1     0.0026
     22 C         6.166542   0.74093   -3.438621 C.3        1 UNL1     0.0016
     23 C         7.04733   -1.87769   -5.97656 C.3        1 UNL1     0.0012
     24 C         6.010605   -2.633496   -6.822559 C.3        1 UNL1     -0.0339
     25 C         6.086401   -2.224176   -8.302684 C.3        1 UNL1     -0.0615
     26 C         6.187707   -4.131707   -6.647126 C.3        1 UNL1     -0.0615
     27 C         5.872715   7.797322   -5.456245 C.ar        1 UNL1     0.1347
     28 C         4.810455   8.341142   -4.756306 C.ar        1 UNL1     0.0342
     29 C         4.151077   7.435952   -3.89781 C.ar        1 UNL1     0.1435
     30 C         4.508043   6.090619   -3.798432 C.ar        1 UNL1     0.0774
     31 O         3.028636   7.785952   -3.232505 O.3        1 UNL1     -0.4436
     32 C         2.41325   6.538353   -2.878008 C.3        1 UNL1     0.3143
     33 C         3.540443   5.525614   -2.881217 C.2        1 UNL1     0.2504
     34 C         4.227828   9.711584   -4.962543 C.3        1 UNL1     -0.0327
     35 O         1.961823   6.655844   -1.523143 O.2        1 UNL1     -0.4528
     36 C         -1.083352   4.407276   -1.242178 C.3        1 UNL1     0.0854
     37 C         -1.211932   2.862906   -1.535282 C.3        1 UNL1     0.0236
     38 C         -1.792955   1.990693   -0.321445 C.3        1 UNL1     0.1131
     39 C         -1.157507   2.130419   1.120412 C.3        1 UNL1     0.0200
     40 C         0.498484   2.189751   1.311753 C.3        1 UNL1     0.0661
     41 C         1.616336   1.108096   0.634966 C.3        1 UNL1     0.0091
     42 C         3.33942   1.378348   0.06633 C.3        1 UNL1     0.0661
     43 C         7.281325   5.892998   -6.266813 C.2        1 UNL1     0.2131
     44 O         7.682369   6.445563   -7.275065 O.2        1 UNL1     -0.2851
     45 O         6.648909   8.6252   -6.264687 O.3        1 UNL1     -0.5056
     46 O         3.629653   4.495434   -2.251435 O.2        1 UNL1     -0.2836
     47 C         5.248104   2.577508   1.493479 C.3        1 UNL1     -0.0566
     48 O         3.877575   0.185533   0.763967 O.3        1 UNL1     -0.3909
     49 C         0.921775   0.293443   -0.433407 C.3        1 UNL1     -0.0577
     50 O         0.970622   3.51577   1.183366 O.3        1 UNL1     -0.3910
     51 O         -1.324583   4.803863   0.088971 O.3        1 UNL1     -0.3753
     52 C         -0.054452   2.346098   -2.45076 C.3        1 UNL1     -0.0564
     53 O         -2.232293   0.614266   -0.727348 O.3        1 UNL1     -0.4608
     54 C         -2.40412   -0.448049   0.121117 C.2        1 UNL1     0.3042
     55 O         -1.726496   -1.47327   0.181007 O.2        1 UNL1     -0.2512
     56 C         -3.526294   -0.259071   1.101793 C.3        1 UNL1     0.0332
     57 C         -2.040315   3.185439   1.936352 C.3        1 UNL1     -0.0567
     58 C         1.430634   6.194758   -4.02166 C.3        1 UNL1     0.0210
     59 C         -1.789477   6.144342   0.240145 C.3        1 UNL1     0.0372
     60 C         0.213312   5.017719   -1.643653 C.2        1 UNL1     -0.0208
     61 C         1.006669   5.868854   -0.99181 C.2        1 UNL1     0.0882
     62 H         4.408991   3.198626   -0.375858 H        1 UNL1     0.0365
     63 H         6.060108   3.813744   -1.408171 H        1 UNL1     0.0576
     64 H         8.296432   1.696521   -1.294173 H        1 UNL1     0.0615
     65 H         8.025405   4.425222   -2.790366 H        1 UNL1     0.0622
     66 H         -1.846602   4.873897   -1.88074 H        1 UNL1     0.0645
     67 H         -2.035648   2.796605   -2.267167 H        1 UNL1     0.0362
     68 H         -2.797722   2.432948   -0.241588 H        1 UNL1     0.0741
     69 H         -1.43318   1.264632   1.70763 H        1 UNL1     0.0359
     70 H         0.573201   1.973162   2.394604 H        1 UNL1     0.0600
     71 H         1.691965   0.369047   1.456577 H        1 UNL1     0.0348
     72 H         3.106928   2.216906   0.738702 H        1 UNL1     0.0602
     73 H         0.414306   4.775434   -2.657629 H        1 UNL1     0.0628
     74 H         0.903129   6.123404   0.06352 H        1 UNL1     0.1022
     75 H         11.042801   1.746742   -3.448503 H        1 UNL1     0.0279
     76 H         10.917613   2.288632   -5.074536 H        1 UNL1     0.0279
     77 H         11.87985   3.192334   -3.836505 H        1 UNL1     0.0279
     78 H         9.135109   3.188764   -6.072511 H        1 UNL1     0.1553
     79 H         7.936819   1.874373   -5.199183 H        1 UNL1     0.1484
     80 H         4.2699   0.880783   -5.276489 H        1 UNL1     0.0317
     81 H         4.934605   2.142415   -6.304291 H        1 UNL1     0.0317
     82 H         7.022532   0.806899   -6.692445 H        1 UNL1     0.0428
     83 H         5.572392   -0.054143   -7.158711 H        1 UNL1     0.0428
     84 H         7.259461   -1.068791   -3.386785 H        1 UNL1     0.0428
     85 H         8.101416   0.12755   -4.308198 H        1 UNL1     0.0428
     86 H         6.611336   0.947906   -2.48295 H        1 UNL1     0.0317
     87 H         5.216163   0.259674   -3.177341 H        1 UNL1     0.0317
     88 H         7.849062   -1.525552   -6.638767 H        1 UNL1     0.0429
     89 H         7.511056   -2.539773   -5.234011 H        1 UNL1     0.0429
     90 H         5.005799   -2.40478   -6.448036 H        1 UNL1     0.0308
     91 H         7.087033   -2.393669   -8.711473 H        1 UNL1     0.0233
     92 H         5.357603   -2.781866   -8.895511 H        1 UNL1     0.0233
     93 H         5.856233   -1.162699   -8.454752 H        1 UNL1     0.0233
     94 H         5.586547   -4.672209   -7.386247 H        1 UNL1     0.0233
     95 H         7.235591   -4.404546   -6.800295 H        1 UNL1     0.0233
     96 H         5.880937   -4.455584   -5.648645 H        1 UNL1     0.0233
     97 H         3.368066   9.889221   -4.323415 H        1 UNL1     0.0280
     98 H         4.947033   10.506806   -4.726701 H        1 UNL1     0.0280
     99 H         3.907452   9.822371   -6.011439 H        1 UNL1     0.0280
     100 H         6.162071   9.1203   -6.899894 H        1 UNL1     0.2922
     101 H         4.374485   2.306786   2.086063 H        1 UNL1     0.0236
     102 H         5.583659   3.59324   1.700058 H        1 UNL1     0.0236
     103 H         6.056294   1.931476   1.875141 H        1 UNL1     0.0236
     104 H         4.22025   0.480194   1.630408 H        1 UNL1     0.2098
     105 H         0.700812   0.843294   -1.344807 H        1 UNL1     0.0234
     106 H         1.406687   -0.653188   -0.671475 H        1 UNL1     0.0234
     107 H         0.0   -0.0   0.0 H        1 UNL1     0.0234
     108 H         0.792793   3.799478   0.265948 H        1 UNL1     0.2098
     109 H         0.935329   2.509411   -2.002013 H        1 UNL1     0.0234
     110 H         -0.162158   1.2916   -2.726762 H        1 UNL1     0.0234
     111 H         -0.034569   2.872742   -3.414189 H        1 UNL1     0.0234
     112 H         -3.603793   -1.135666   1.752117 H        1 UNL1     0.0342
     113 H         -3.410053   0.652183   1.686556 H        1 UNL1     0.0342
     114 H         -4.464947   -0.174692   0.537014 H        1 UNL1     0.0342
     115 H         -3.088348   2.865498   2.01668 H        1 UNL1     0.0234
     116 H         -1.677819   3.379572   2.947766 H        1 UNL1     0.0234
     117 H         -2.152499   4.155749   1.422684 H        1 UNL1     0.0234
     118 H         0.462255   6.712262   -3.905737 H        1 UNL1     0.0309
     119 H         1.835519   6.4109   -5.015417 H        1 UNL1     0.0309
     120 H         1.151311   5.135521   -4.031839 H        1 UNL1     0.0309
     121 H         -1.011307   6.807629   -0.136494 H        1 UNL1     0.0524
     122 H         -2.703444   6.338728   -0.345446 H        1 UNL1     0.0524
     123 H         -1.989251   6.357113   1.286526 H        1 UNL1     0.0524
@<TRIPOS>BOND
     1     1     2    1
     2     1    42    1
     3     2     3    2
     4     3     4    1
     5     4     5    2
     6     5     7    1
     7     6    75    1
     8     6    76    1
     9     6    77    1
    10     7     9   am
    11     9    10    1
    12    10    11    2
    13    10    43    1
    14    11    14    1
    15    11    15    1
    16    12    13   ar
    17    12    27   ar
    18    12    43    1
    19    13    14    1
    20    13    30   ar
    21    14    17    2
    22    15    16    1
    23    16    17    1
    24    16    18    1
    25    16    22    1
    26    18    19    1
    27    19    20    1
    28    20    21    1
    29    21    22    1
    30    23    24    1
    31    23    88    1
    32    23    89    1
    33    24    25    1
    34    24    26    1
    35    24    90    1
    36    25    91    1
    37    25    92    1
    38    25    93    1
    39    26    94    1
    40    26    95    1
    41    26    96    1
    42    27    28   ar
    43    28    29   ar
    44    29    30   ar
    45    29    31    1
    46    30    33    1
    47    31    32    1
    48    32    33    1
    49    32    35    1
    50    34    97    1
    51    34    98    1
    52    34    99    1
    53    35    61    1
    54    36    37    1
    55    36    60    1
    56    37    38    1
    57    38    39    1
    58    39    40    1
    59    40    41    1
    60    41    42    1
    61    45   100    1
    62    47   101    1
    63    47   102    1
    64    47   103    1
    65    48   104    1
    66    49   105    1
    67    49   106    1
    68    49   107    1
    69    50   108    1
    70    51    59    1
    71    52   109    1
    72    52   110    1
    73    52   111    1
    74    53    54    1
    75    54    55    2
    76    54    56    1
    77    56   112    1
    78    56   113    1
    79    56   114    1
    80    57   115    1
    81    57   116    1
    82    57   117    1
    83    58   118    1
    84    58   119    1
    85    58   120    1
    86    59   121    1
    87    59   122    1
    88    59   123    1
    89    60    61    2
    90     1    47    1
    91     1    62    1
    92     2    63    1
    93     3    64    1
    94     4    65    1
    95     5     6    1
    96     7     8    2
    97     9    78    1
    98    15    79    1
    99    18    80    1
   100    18    81    1
   101    19    82    1
   102    19    83    1
   103    20    23    1
   104    21    84    1
   105    21    85    1
   106    22    86    1
   107    22    87    1
   108    27    45    1
   109    28    34    1
   110    32    58    1
   111    33    46    2
   112    36    51    1
   113    36    66    1
   114    37    52    1
   115    37    67    1
   116    38    53    1
   117    38    68    1
   118    42    48    1
   119    42    72    1
   120    43    44    2
   121    60    73    1
   122    61    74    1
   123    39    69    1
   124    39    57    1
   125    40    70    1
   126    40    50    1
   127    41    71    1
   128    41    49    1
