@<TRIPOS>MOLECULE
*****
 123 128 0 0 0
SMALL
GASTEIGER

@<TRIPOS>ATOM
     1 C         2.139124   -1.641489   4.768796 C.3        1 UNL1     0.0009
     2 C         1.93636   -1.672914   6.611331 C.2        1 UNL1     -0.0787
     3 C         2.28195   -1.163881   7.921865 C.2        1 UNL1     -0.0649
     4 C         1.586832   -1.568148   9.411743 C.2        1 UNL1     -0.0542
     5 C         1.398576   -1.157818   10.7546 C.2        1 UNL1     0.0115
     6 C         1.841166   -0.124163   11.826511 C.3        1 UNL1     -0.0348
     7 C         0.227112   -1.83636   11.617296 C.2        1 UNL1     0.2441
     8 O         0.434055   -2.705615   12.452817 O.2        1 UNL1     -0.2702
     9 N         -1.016062   -1.184978   11.537474 N.am        1 UNL1     -0.2772
     10 C         -1.743268   -1.666928   10.473417 C.2        1 UNL1     0.1049
     11 C         -1.466224   -1.141954   9.293641 C.2        1 UNL1     0.0801
     12 C         -2.508347   -3.789068   9.392441 C.ar        1 UNL1     0.0753
     13 C         -1.999053   -3.255776   8.165727 C.ar        1 UNL1     0.0305
     14 C         -1.580488   -1.860343   8.053384 C.2        1 UNL1     0.0924
     15 N         -0.733539   -0.059577   8.980338 N.pl3        1 UNL1     -0.3170
     16 C         -0.887188   0.181914   7.570257 C.3        1 UNL1     0.1275
     17 N         -1.181986   -1.177202   6.984065 N.2        1 UNL1     -0.2557
     18 C         -2.158099   1.006208   7.388524 C.3        1 UNL1     0.0016
     19 C         -2.045675   2.265778   8.232581 C.3        1 UNL1     0.0026
     20 N         -0.871042   3.012617   7.804217 N.3        1 UNL1     -0.3018
     21 C         0.394537   2.280288   7.884058 C.3        1 UNL1     0.0026
     22 C         0.26079   1.021444   7.025386 C.3        1 UNL1     0.0016
     23 C         -0.837913   4.362415   8.331087 C.3        1 UNL1     0.0012
     24 C         -1.923674   5.225649   7.669494 C.3        1 UNL1     -0.0339
     25 C         -3.319211   4.89743   8.225199 C.3        1 UNL1     -0.0615
     26 C         -1.589272   6.698208   7.832357 C.3        1 UNL1     -0.0615
     27 C         -3.0175   -5.083778   9.460318 C.ar        1 UNL1     0.1347
     28 C         -3.105962   -5.92214   8.363334 C.ar        1 UNL1     0.0342
     29 C         -2.553743   -5.393508   7.177262 C.ar        1 UNL1     0.1435
     30 C         -2.007404   -4.111642   7.102741 C.ar        1 UNL1     0.0774
     31 O         -2.662324   -6.04409   5.998297 O.3        1 UNL1     -0.4436
     32 C         -2.433368   -5.033978   5.004252 C.3        1 UNL1     0.3143
     33 C         -1.637905   -3.955374   5.711405 C.2        1 UNL1     0.2504
     34 C         -3.863825   -7.219131   8.303688 C.3        1 UNL1     -0.0327
     35 O         -1.572852   -5.602545   4.009518 O.2        1 UNL1     -0.4528
     36 C         -2.468264   -3.876761   0.749457 C.3        1 UNL1     0.0854
     37 C         -2.459309   -2.338515   0.401256 C.3        1 UNL1     0.0236
     38 C         -1.579009   -1.940414   -0.878716 C.3        1 UNL1     0.1131
     39 C         -0.083014   -2.442373   -0.989658 C.3        1 UNL1     0.0200
     40 C         0.928604   -2.382789   0.335301 C.3        1 UNL1     0.0661
     41 C         1.176233   -1.036085   1.336639 C.3        1 UNL1     0.0091
     42 C         1.55077   -0.939348   3.129895 C.3        1 UNL1     0.0661
     43 C         -2.558832   -2.886752   10.56953 C.2        1 UNL1     0.2131
     44 O         -3.297207   -3.063112   11.521599 O.2        1 UNL1     -0.2851
     45 O         -3.451305   -5.542062   10.702585 O.3        1 UNL1     -0.5056
     46 O         -0.857801   -3.160623   5.236365 O.2        1 UNL1     -0.2836
     47 C         3.481551   -2.306968   4.362581 C.3        1 UNL1     -0.0566
     48 O         2.655218   0.03603   2.962719 O.3        1 UNL1     -0.3909
     49 C         0.097519   -0.013936   1.055422 C.3        1 UNL1     -0.0577
     50 O         0.795626   -3.550625   1.120285 O.3        1 UNL1     -0.3910
     51 O         -1.575076   -4.680506   0.012138 O.3        1 UNL1     -0.3753
     52 C         -2.504938   -1.450544   1.687481 C.3        1 UNL1     -0.0564
     53 O         -1.86044   -0.559734   -1.395287 O.3        1 UNL1     -0.4608
     54 C         -0.926316   0.305187   -1.902488 C.2        1 UNL1     0.3042
     55 O         -0.218231   1.091756   -1.274983 O.2        1 UNL1     -0.2512
     56 C         -0.751876   0.196968   -3.390633 C.3        1 UNL1     0.0332
     57 C         -0.087186   -3.781293   -1.864557 C.3        1 UNL1     -0.0567
     58 C         -3.822098   -4.465519   4.630337 C.3        1 UNL1     0.0210
     59 C         -2.191438   -5.530342   -0.954166 C.3        1 UNL1     0.0372
     60 C         -2.248527   -4.197599   2.186099 C.2        1 UNL1     -0.0208
     61 C         -1.470244   -5.117926   2.757079 C.2        1 UNL1     0.0882
     62 H         1.368533   -2.417818   4.689972 H        1 UNL1     0.0365
     63 H         1.250762   -2.51505   6.726367 H        1 UNL1     0.0576
     64 H         2.950779   -0.309252   8.045902 H        1 UNL1     0.0615
     65 H         1.008549   -2.470025   9.193362 H        1 UNL1     0.0622
     66 H         -3.491685   -4.205664   0.520376 H        1 UNL1     0.0645
     67 H         -3.481587   -2.140665   0.034699 H        1 UNL1     0.0362
     68 H         -2.129384   -2.488923   -1.658298 H        1 UNL1     0.0741
     69 H         0.437242   -1.828749   -1.712989 H        1 UNL1     0.0359
     70 H         1.908053   -2.497386   -0.167301 H        1 UNL1     0.0600
     71 H         2.047852   -0.576598   0.830568 H        1 UNL1     0.0348
     72 H         1.812419   -1.961562   2.820163 H        1 UNL1     0.0602
     73 H         -2.932222   -3.640211   2.77697 H        1 UNL1     0.0628
     74 H         -0.703934   -5.689223   2.232079 H        1 UNL1     0.1022
     75 H         2.954117   -0.03564   11.849749 H        1 UNL1     0.0279
     76 H         1.527596   0.905004   11.666637 H        1 UNL1     0.0279
     77 H         1.628784   -0.458225   12.852668 H        1 UNL1     0.0279
     78 H         -0.871239   -0.189269   11.383636 H        1 UNL1     0.1553
     79 H         -0.504021   0.666009   9.634386 H        1 UNL1     0.1484
     80 H         -2.27968   1.246083   6.325301 H        1 UNL1     0.0317
     81 H         -3.042696   0.431559   7.683345 H        1 UNL1     0.0317
     82 H         -1.996886   2.033172   9.306558 H        1 UNL1     0.0428
     83 H         -2.96292   2.837854   8.089608 H        1 UNL1     0.0428
     84 H         1.248291   2.834817   7.482297 H        1 UNL1     0.0428
     85 H         0.679397   2.068548   8.923932 H        1 UNL1     0.0428
     86 H         1.241094   0.582877   6.99984 H        1 UNL1     0.0317
     87 H         0.079439   1.298633   5.979741 H        1 UNL1     0.0317
     88 H         -1.03926   4.313255   9.409205 H        1 UNL1     0.0429
     89 H         0.155287   4.813612   8.209649 H        1 UNL1     0.0429
     90 H         -1.924493   5.036353   6.589504 H        1 UNL1     0.0308
     91 H         -3.995624   4.56642   7.431474 H        1 UNL1     0.0233
     92 H         -3.257228   4.120466   8.990766 H        1 UNL1     0.0233
     93 H         -3.79166   5.76289   8.705413 H        1 UNL1     0.0233
     94 H         -2.495227   7.305025   7.728173 H        1 UNL1     0.0233
     95 H         -1.174851   6.879346   8.828051 H        1 UNL1     0.0233
     96 H         -0.86434   7.028048   7.082926 H        1 UNL1     0.0233
     97 H         -4.622759   -7.212236   7.527026 H        1 UNL1     0.0280
     98 H         -3.209315   -8.07082   8.076753 H        1 UNL1     0.0280
     99 H         -4.360656   -7.401058   9.270723 H        1 UNL1     0.0280
     100 H         -2.840603   -5.405352   11.405419 H        1 UNL1     0.2922
     101 H         3.291246   -3.299302   3.954276 H        1 UNL1     0.0236
     102 H         4.21044   -2.330635   5.17199 H        1 UNL1     0.0236
     103 H         3.984591   -1.760642   3.547306 H        1 UNL1     0.0236
     104 H         2.562764   0.437259   2.07647 H        1 UNL1     0.2098
     105 H         -0.874378   -0.259336   1.476142 H        1 UNL1     0.0234
     106 H         0.367616   1.01277   1.302097 H        1 UNL1     0.0234
     107 H         0.0   0.0   0.0 H        1 UNL1     0.0234
     108 H         1.2213   -3.371749   1.98085 H        1 UNL1     0.2098
     109 H         -3.413133   -1.624766   2.281232 H        1 UNL1     0.0234
     110 H         -1.62206   -1.570195   2.324626 H        1 UNL1     0.0234
     111 H         -2.511976   -0.380536   1.440542 H        1 UNL1     0.0234
     112 H         0.019549   0.896448   -3.726754 H        1 UNL1     0.0342
     113 H         -0.519881   -0.820143   -3.702892 H        1 UNL1     0.0342
     114 H         -1.698429   0.484257   -3.868825 H        1 UNL1     0.0342
     115 H         0.818961   -3.870134   -2.479531 H        1 UNL1     0.0234
     116 H         -0.175213   -4.696295   -1.275428 H        1 UNL1     0.0234
     117 H         -0.872988   -3.798128   -2.639266 H        1 UNL1     0.0234
     118 H         -4.125314   -4.750976   3.607801 H        1 UNL1     0.0309
     119 H         -4.609367   -4.75833   5.332243 H        1 UNL1     0.0309
     120 H         -3.834024   -3.370487   4.600881 H        1 UNL1     0.0309
     121 H         -1.530982   -6.382368   -1.11293 H        1 UNL1     0.0524
     122 H         -3.162042   -5.922712   -0.607741 H        1 UNL1     0.0524
     123 H         -2.3408   -4.993035   -1.886414 H        1 UNL1     0.0524
@<TRIPOS>BOND
     1     1     2    1
     2     1    42    1
     3     2     3    2
     4     3     4    1
     5     4     5    2
     6     5     7    1
     7     6    75    1
     8     6    76    1
     9     6    77    1
    10     7     9   am
    11     9    10    1
    12    10    11    2
    13    10    43    1
    14    11    14    1
    15    11    15    1
    16    12    13   ar
    17    12    27   ar
    18    12    43    1
    19    13    14    1
    20    13    30   ar
    21    14    17    2
    22    15    16    1
    23    16    17    1
    24    16    18    1
    25    16    22    1
    26    18    19    1
    27    19    20    1
    28    20    21    1
    29    21    22    1
    30    23    24    1
    31    23    88    1
    32    23    89    1
    33    24    25    1
    34    24    26    1
    35    24    90    1
    36    25    91    1
    37    25    92    1
    38    25    93    1
    39    26    94    1
    40    26    95    1
    41    26    96    1
    42    27    28   ar
    43    28    29   ar
    44    29    30   ar
    45    29    31    1
    46    30    33    1
    47    31    32    1
    48    32    33    1
    49    32    35    1
    50    34    97    1
    51    34    98    1
    52    34    99    1
    53    35    61    1
    54    36    37    1
    55    36    60    1
    56    37    38    1
    57    38    39    1
    58    39    40    1
    59    40    41    1
    60    41    42    1
    61    45   100    1
    62    47   101    1
    63    47   102    1
    64    47   103    1
    65    48   104    1
    66    49   105    1
    67    49   106    1
    68    49   107    1
    69    50   108    1
    70    51    59    1
    71    52   109    1
    72    52   110    1
    73    52   111    1
    74    53    54    1
    75    54    55    2
    76    54    56    1
    77    56   112    1
    78    56   113    1
    79    56   114    1
    80    57   115    1
    81    57   116    1
    82    57   117    1
    83    58   118    1
    84    58   119    1
    85    58   120    1
    86    59   121    1
    87    59   122    1
    88    59   123    1
    89    60    61    2
    90     1    47    1
    91     1    62    1
    92     2    63    1
    93     3    64    1
    94     4    65    1
    95     5     6    1
    96     7     8    2
    97     9    78    1
    98    15    79    1
    99    18    80    1
   100    18    81    1
   101    19    82    1
   102    19    83    1
   103    20    23    1
   104    21    84    1
   105    21    85    1
   106    22    86    1
   107    22    87    1
   108    27    45    1
   109    28    34    1
   110    32    58    1
   111    33    46    2
   112    36    51    1
   113    36    66    1
   114    37    52    1
   115    37    67    1
   116    38    53    1
   117    38    68    1
   118    42    48    1
   119    42    72    1
   120    43    44    2
   121    60    73    1
   122    61    74    1
   123    39    69    1
   124    39    57    1
   125    40    70    1
   126    40    50    1
   127    41    71    1
   128    41    49    1
