@<TRIPOS>MOLECULE
*****
 123 128 0 0 0
SMALL
GASTEIGER

@<TRIPOS>ATOM
     1 C         -1.095743   -3.224085   4.088145 C.3        1 UNL1     0.0009
     2 C         -0.402575   -4.459204   5.284404 C.2        1 UNL1     -0.0787
     3 C         -0.070395   -5.825988   5.627336 C.2        1 UNL1     -0.0649
     4 C         0.756653   -6.384031   6.995158 C.2        1 UNL1     -0.0542
     5 C         1.497823   -7.458576   7.545703 C.2        1 UNL1     0.0115
     6 C         1.92413   -8.93565   7.32246 C.3        1 UNL1     -0.0348
     7 C         2.411145   -7.190545   8.838371 C.2        1 UNL1     0.2441
     8 O         2.076948   -7.51788   9.96872 O.2        1 UNL1     -0.2702
     9 N         3.729507   -6.792746   8.555831 N.am        1 UNL1     -0.2772
     10 C         3.800553   -5.424949   8.423904 C.2        1 UNL1     0.1049
     11 C         3.469455   -4.936182   7.242505 C.2        1 UNL1     0.0801
     12 C         3.132774   -3.287334   9.538358 C.ar        1 UNL1     0.0753
     13 C         2.597977   -2.885994   8.272844 C.ar        1 UNL1     0.0305
     14 C         2.867018   -3.644429   7.053235 C.2        1 UNL1     0.0924
     15 N         3.27145   -5.56601   6.071763 N.pl3        1 UNL1     -0.3170
     16 C         3.100232   -4.56155   5.055889 C.3        1 UNL1     0.1275
     17 N         2.540644   -3.369698   5.793502 N.2        1 UNL1     -0.2557
     18 C         4.492657   -4.152658   4.585081 C.3        1 UNL1     0.0016
     19 C         5.233391   -5.396216   4.119822 C.3        1 UNL1     0.0026
     20 N         4.476256   -6.015389   3.04075 N.3        1 UNL1     -0.3018
     21 C         3.101419   -6.388169   3.380203 C.3        1 UNL1     0.0026
     22 C         2.37455   -5.123364   3.840447 C.3        1 UNL1     0.0016
     23 C         5.232573   -7.026406   2.329081 C.3        1 UNL1     0.0012
     24 C         4.954579   -8.419396   2.915643 C.3        1 UNL1     -0.0339
     25 C         5.020495   -8.406158   4.451721 C.3        1 UNL1     -0.0615
     26 C         3.615957   -8.936341   2.418008 C.3        1 UNL1     -0.0615
     27 C         2.973357   -2.495511   10.673136 C.ar        1 UNL1     0.1347
     28 C         2.335271   -1.268052   10.657596 C.ar        1 UNL1     0.0342
     29 C         1.77435   -0.916281   9.411487 C.ar        1 UNL1     0.1435
     30 C         1.89479   -1.716362   8.274568 C.ar        1 UNL1     0.0774
     31 O         1.216732   0.297079   9.206968 O.3        1 UNL1     -0.4436
     32 C         1.206482   0.455654   7.780216 C.3        1 UNL1     0.3143
     33 C         1.252601   -0.953412   7.22468 C.2        1 UNL1     0.2504
     34 C         2.345116   -0.255094   11.768415 C.3        1 UNL1     -0.0327
     35 O         -0.06792   1.003941   7.421704 O.2        1 UNL1     -0.4528
     36 C         0.531989   3.075592   4.298171 C.3        1 UNL1     0.0854
     37 C         1.140646   2.634356   2.911675 C.3        1 UNL1     0.0236
     38 C         0.217503   2.946911   1.638152 C.3        1 UNL1     0.1131
     39 C         -1.297915   2.493286   1.636634 C.3        1 UNL1     0.0200
     40 C         -1.72722   0.979399   2.19006 C.3        1 UNL1     0.0661
     41 C         -1.012702   -0.487587   1.726352 C.3        1 UNL1     0.0091
     42 C         -0.756004   -2.037863   2.673007 C.3        1 UNL1     0.0661
     43 C         3.940103   -4.531693   9.583634 C.2        1 UNL1     0.2131
     44 O         4.75242   -4.775553   10.457368 O.2        1 UNL1     -0.2851
     45 O         3.484696   -2.98042   11.875148 O.3        1 UNL1     -0.5056
     46 O         0.833501   -1.359206   6.163765 O.2        1 UNL1     -0.2836
     47 C         -2.645603   -3.309279   4.062514 C.3        1 UNL1     -0.0566
     48 O         -1.271546   -2.915895   1.594864 O.3        1 UNL1     -0.3909
     49 C         0.282554   -0.192478   1.003362 C.3        1 UNL1     -0.0577
     50 O         -1.931805   0.996431   3.58848 O.3        1 UNL1     -0.3910
     51 O         -0.804201   3.524157   4.269624 O.3        1 UNL1     -0.3753
     52 C         1.969128   1.313878   3.033752 C.3        1 UNL1     -0.0564
     53 O         0.945795   2.847873   0.329676 O.3        1 UNL1     -0.4608
     54 C         2.040355   3.590191   -0.029254 C.2        1 UNL1     0.3042
     55 O         2.990826   3.911778   0.682803 O.2        1 UNL1     -0.2512
     56 C         2.053264   3.9799   -1.480004 C.3        1 UNL1     0.0332
     57 C         -2.175057   3.740129   2.120556 C.3        1 UNL1     -0.0567
     58 C         2.521676   1.18067   7.411233 C.3        1 UNL1     0.0210
     59 C         -1.418309   3.496682   2.981998 C.3        1 UNL1     0.0372
     60 C         0.618775   2.05373   5.376793 C.2        1 UNL1     -0.0208
     61 C         -0.293489   1.652931   6.263292 C.2        1 UNL1     0.0882
     62 H         -0.837883   -2.424889   4.793486 H        1 UNL1     0.0365
     63 H         -0.189706   -3.815917   6.140756 H        1 UNL1     0.0576
     64 H         -0.193553   -6.641845   4.911572 H        1 UNL1     0.0615
     65 H         0.754604   -5.523722   7.669952 H        1 UNL1     0.0622
     66 H         1.165785   3.912324   4.6241 H        1 UNL1     0.0645
     67 H         1.979142   3.334357   2.75204 H        1 UNL1     0.0362
     68 H         0.193036   4.045913   1.693981 H        1 UNL1     0.0741
     69 H         -1.657228   2.483421   0.61624 H        1 UNL1     0.0359
     70 H         -2.745172   0.90167   1.762518 H        1 UNL1     0.0600
     71 H         -1.673733   -0.766277   0.882357 H        1 UNL1     0.0348
     72 H         -1.542017   -1.483586   3.206182 H        1 UNL1     0.0602
     73 H         1.622314   1.716963   5.458921 H        1 UNL1     0.0628
     74 H         -1.353226   1.905585   6.214704 H        1 UNL1     0.1022
     75 H         2.981435   -9.091715   7.646165 H        1 UNL1     0.0279
     76 H         1.389336   -9.687323   7.898698 H        1 UNL1     0.0279
     77 H         1.981296   -9.205497   6.257746 H        1 UNL1     0.0279
     78 H         4.02836   -7.201595   7.672878 H        1 UNL1     0.1553
     79 H         3.609688   -6.489356   5.871863 H        1 UNL1     0.1484
     80 H         4.395306   -3.418372   3.776308 H        1 UNL1     0.0317
     81 H         5.049023   -3.660486   5.389987 H        1 UNL1     0.0317
     82 H         5.398037   -6.10464   4.945013 H        1 UNL1     0.0428
     83 H         6.224225   -5.082162   3.790173 H        1 UNL1     0.0428
     84 H         2.530148   -6.777106   2.531563 H        1 UNL1     0.0428
     85 H         3.068785   -7.201032   4.118787 H        1 UNL1     0.0428
     86 H         1.344131   -5.405886   3.951834 H        1 UNL1     0.0317
     87 H         2.349643   -4.38837   3.026654 H        1 UNL1     0.0317
     88 H         4.910254   -7.018414   1.279633 H        1 UNL1     0.0429
     89 H         6.306643   -6.800402   2.337368 H        1 UNL1     0.0429
     90 H         5.706123   -9.123844   2.539948 H        1 UNL1     0.0308
     91 H         4.057856   -8.124255   4.888709 H        1 UNL1     0.0233
     92 H         5.314704   -9.386339   4.834206 H        1 UNL1     0.0233
     93 H         5.763088   -7.694137   4.831743 H        1 UNL1     0.0233
     94 H         2.909512   -9.018656   3.251071 H        1 UNL1     0.0233
     95 H         3.195202   -8.240563   1.686693 H        1 UNL1     0.0233
     96 H         3.716572   -9.920423   1.951716 H        1 UNL1     0.0233
     97 H         3.092293   -0.484386   12.522325 H        1 UNL1     0.0280
     98 H         2.583106   0.753677   11.406477 H        1 UNL1     0.0280
     99 H         1.357044   -0.233131   12.256602 H        1 UNL1     0.0280
     100 H         3.088729   -2.612896   12.645705 H        1 UNL1     0.2922
     101 H         -2.956208   -4.353766   4.047423 H        1 UNL1     0.0236
     102 H         -3.092932   -2.737787   3.249939 H        1 UNL1     0.0236
     103 H         -3.0983   -2.895903   4.979235 H        1 UNL1     0.0236
     104 H         -2.222068   -3.065451   1.765483 H        1 UNL1     0.2098
     105 H         0.814137   0.680915   1.372707 H        1 UNL1     0.0234
     106 H         0.961551   -1.041053   0.920832 H        1 UNL1     0.0234
     107 H         0.0   0.0   -0.0 H        1 UNL1     0.0234
     108 H         -2.023714   0.068744   3.87954 H        1 UNL1     0.2098
     109 H         1.377682   0.425877   2.770392 H        1 UNL1     0.0234
     110 H         2.8914   1.32826   2.443031 H        1 UNL1     0.0234
     111 H         2.314589   1.146492   4.062628 H        1 UNL1     0.0234
     112 H         2.566577   3.212256   -2.067011 H        1 UNL1     0.0342
     113 H         1.050558   4.16037   -1.864522 H        1 UNL1     0.0342
     114 H         2.621067   4.915301   -1.578951 H        1 UNL1     0.0342
     115 H         -1.838418   4.679395   1.660509 H        1 UNL1     0.0234
     116 H         -3.242583   3.6382   1.915501 H        1 UNL1     0.0234
     117 H         -2.054899   3.972885   3.192623 H        1 UNL1     0.0234
     118 H         2.447741   2.27274   7.555881 H        1 UNL1     0.0309
     119 H         3.389073   0.804258   7.962721 H        1 UNL1     0.0309
     120 H         2.771852   1.082941   6.349175 H        1 UNL1     0.0309
     121 H         -0.77275   2.918903   2.321104 H        1 UNL1     0.0524
     122 H         -2.403826   3.002207   2.998973 H        1 UNL1     0.0524
     123 H         -1.537228   4.506902   2.600674 H        1 UNL1     0.0524
@<TRIPOS>BOND
     1     1     2    1
     2     1    42    1
     3     2     3    2
     4     3     4    1
     5     4     5    2
     6     5     7    1
     7     6    75    1
     8     6    76    1
     9     6    77    1
    10     7     9   am
    11     9    10    1
    12    10    11    2
    13    10    43    1
    14    11    14    1
    15    11    15    1
    16    12    13   ar
    17    12    27   ar
    18    12    43    1
    19    13    14    1
    20    13    30   ar
    21    14    17    2
    22    15    16    1
    23    16    17    1
    24    16    18    1
    25    16    22    1
    26    18    19    1
    27    19    20    1
    28    20    21    1
    29    21    22    1
    30    23    24    1
    31    23    88    1
    32    23    89    1
    33    24    25    1
    34    24    26    1
    35    24    90    1
    36    25    91    1
    37    25    92    1
    38    25    93    1
    39    26    94    1
    40    26    95    1
    41    26    96    1
    42    27    28   ar
    43    28    29   ar
    44    29    30   ar
    45    29    31    1
    46    30    33    1
    47    31    32    1
    48    32    33    1
    49    32    35    1
    50    34    97    1
    51    34    98    1
    52    34    99    1
    53    35    61    1
    54    36    37    1
    55    36    60    1
    56    37    38    1
    57    38    39    1
    58    39    40    1
    59    40    41    1
    60    41    42    1
    61    45   100    1
    62    47   101    1
    63    47   102    1
    64    47   103    1
    65    48   104    1
    66    49   105    1
    67    49   106    1
    68    49   107    1
    69    50   108    1
    70    51    59    1
    71    52   109    1
    72    52   110    1
    73    52   111    1
    74    53    54    1
    75    54    55    2
    76    54    56    1
    77    56   112    1
    78    56   113    1
    79    56   114    1
    80    57   115    1
    81    57   116    1
    82    57   117    1
    83    58   118    1
    84    58   119    1
    85    58   120    1
    86    59   121    1
    87    59   122    1
    88    59   123    1
    89    60    61    2
    90     1    47    1
    91     1    62    1
    92     2    63    1
    93     3    64    1
    94     4    65    1
    95     5     6    1
    96     7     8    2
    97     9    78    1
    98    15    79    1
    99    18    80    1
   100    18    81    1
   101    19    82    1
   102    19    83    1
   103    20    23    1
   104    21    84    1
   105    21    85    1
   106    22    86    1
   107    22    87    1
   108    27    45    1
   109    28    34    1
   110    32    58    1
   111    33    46    2
   112    36    51    1
   113    36    66    1
   114    37    52    1
   115    37    67    1
   116    38    53    1
   117    38    68    1
   118    42    48    1
   119    42    72    1
   120    43    44    2
   121    60    73    1
   122    61    74    1
   123    39    69    1
   124    39    57    1
   125    40    70    1
   126    40    50    1
   127    41    71    1
   128    41    49    1
