@<TRIPOS>MOLECULE
*****
 123 128 0 0 0
SMALL
GASTEIGER

@<TRIPOS>ATOM
     1 C         0.201162   -4.416239   -1.937895 C.3        1 UNL1     0.0009
     2 C         -0.499461   -5.17102   -3.479475 C.2        1 UNL1     -0.0787
     3 C         -1.382409   -6.120267   -4.123973 C.2        1 UNL1     -0.0649
     4 C         -1.710704   -6.279488   -5.777221 C.2        1 UNL1     -0.0542
     5 C         -2.621892   -6.78611   -6.736465 C.2        1 UNL1     0.0115
     6 C         -3.871793   -7.688436   -6.928502 C.3        1 UNL1     -0.0348
     7 C         -2.561352   -6.223205   -8.238618 C.2        1 UNL1     0.2441
     8 O         -2.045206   -6.840323   -9.160184 O.2        1 UNL1     -0.2702
     9 N         -3.36762   -5.096903   -8.478468 N.am        1 UNL1     -0.2772
     10 C         -2.67686   -3.941975   -8.191564 C.2        1 UNL1     0.1049
     11 C         -2.656589   -3.575844   -6.922801 C.2        1 UNL1     0.0801
     12 C         -0.501059   -2.778091   -8.602168 C.ar        1 UNL1     0.0753
     13 C         -0.424836   -2.588626   -7.185517 C.ar        1 UNL1     0.0305
     14 C         -1.564465   -2.865861   -6.31406 C.2        1 UNL1     0.0924
     15 N         -3.375277   -4.029071   -5.88136 N.pl3        1 UNL1     -0.3170
     16 C         -3.097203   -3.180557   -4.753108 C.3        1 UNL1     0.1275
     17 N         -1.704793   -2.657178   -5.00804 N.2        1 UNL1     -0.2557
     18 C         -4.027528   -1.975514   -4.853447 C.3        1 UNL1     0.0016
     19 C         -5.462236   -2.473452   -4.925972 C.3        1 UNL1     0.0026
     20 N         -5.746447   -3.256789   -3.731553 N.3        1 UNL1     -0.3018
     21 C         -4.862407   -4.404034   -3.51552 C.3        1 UNL1     0.0026
     22 C         -3.42711   -3.880302   -3.441213 C.3        1 UNL1     0.0016
     23 C         -7.159987   -3.524536   -3.555884 C.3        1 UNL1     0.0012
     24 C         -7.994843   -2.662518   -4.515935 C.3        1 UNL1     -0.0339
     25 C         -9.46754   -3.104065   -4.531944 C.3        1 UNL1     -0.0615
     26 C         -7.85535   -1.194404   -4.152671 C.3        1 UNL1     -0.0615
     27 C         0.546014   -2.398245   -9.438514 C.ar        1 UNL1     0.1347
     28 C         1.698376   -1.785151   -8.980007 C.ar        1 UNL1     0.0342
     29 C         1.772113   -1.653331   -7.577028 C.ar        1 UNL1     0.1435
     30 C         0.746518   -2.062182   -6.723672 C.ar        1 UNL1     0.0774
     31 O         2.781001   -0.97783   -6.984702 O.3        1 UNL1     -0.4436
     32 C         2.282716   -0.654306   -5.677828 C.3        1 UNL1     0.3143
     33 C         1.198277   -1.67643   -5.403113 C.2        1 UNL1     0.2504
     34 C         2.746008   -1.126328   -9.833539 C.3        1 UNL1     -0.0327
     35 O         3.340074   -0.90672   -4.74427 O.2        1 UNL1     -0.4528
     36 C         2.818266   1.544326   -1.893273 C.3        1 UNL1     0.0854
     37 C         1.556411   1.742462   -0.968078 C.3        1 UNL1     0.0236
     38 C         1.84843   1.635836   0.605167 C.3        1 UNL1     0.1131
     39 C         2.640642   0.39042   1.174031 C.3        1 UNL1     0.0200
     40 C         2.291289   -1.149927   0.637633 C.3        1 UNL1     0.0661
     41 C         0.745556   -1.842192   0.542286 C.3        1 UNL1     0.0091
     42 C         0.061415   -3.067983   -0.638726 C.3        1 UNL1     0.0661
     43 C         -1.768806   -3.310372   -9.160517 C.2        1 UNL1     0.2131
     44 O         -2.111062   -3.156542   -10.318936 O.2        1 UNL1     -0.2851
     45 O         0.410941   -2.659247   -10.800524 O.3        1 UNL1     -0.5056
     46 O         0.810071   -2.094688   -4.335306 O.2        1 UNL1     -0.2836
     47 C         1.221582   -5.383388   -1.279605 C.3        1 UNL1     -0.0566
     48 O         -0.54143   -3.917952   0.416379 O.3        1 UNL1     -0.3909
     49 C         -0.288833   -0.749008   0.69223 C.3        1 UNL1     -0.0577
     50 O         3.029648   -1.453981   -0.5286 O.3        1 UNL1     -0.3910
     51 O         3.99893   1.129261   -1.244285 O.3        1 UNL1     -0.3753
     52 C         0.261812   1.150669   -1.61518 C.3        1 UNL1     -0.0564
     53 O         0.734872   2.166473   1.46 O.3        1 UNL1     -0.4608
     54 C         0.325573   1.632851   2.654006 C.2        1 UNL1     0.3042
     55 O         0.243626   2.206406   3.739436 O.2        1 UNL1     -0.2512
     56 C         -0.112057   0.199289   2.553532 C.3        1 UNL1     0.0332
     57 C         4.180194   0.808898   1.287295 C.3        1 UNL1     -0.0567
     58 C         1.632768   0.744336   -5.791394 C.3        1 UNL1     0.0210
     59 C         4.986277   2.147296   -1.087388 C.3        1 UNL1     0.0372
     60 C         2.615231   0.623801   -3.045043 C.2        1 UNL1     -0.0208
     61 C         3.389581   -0.354148   -3.516996 C.2        1 UNL1     0.0882
     62 H         0.781667   -3.726511   -2.562395 H        1 UNL1     0.0365
     63 H         0.084992   -4.653727   -4.243211 H        1 UNL1     0.0576
     64 H         -2.070898   -6.743404   -3.548829 H        1 UNL1     0.0615
     65 H         -0.926216   -5.687871   -6.256856 H        1 UNL1     0.0622
     66 H         2.999531   2.5369   -2.329147 H        1 UNL1     0.0645
     67 H         1.312008   2.813744   -1.073826 H        1 UNL1     0.0362
     68 H         2.528099   2.493333   0.724627 H        1 UNL1     0.0741
     69 H         2.458008   0.31814   2.237906 H        1 UNL1     0.0359
     70 H         2.776794   -1.744271   1.435192 H        1 UNL1     0.0600
     71 H         0.690844   -2.330402   1.535067 H        1 UNL1     0.0348
     72 H         1.155234   -3.157776   -0.708109 H        1 UNL1     0.0602
     73 H         1.753995   0.927018   -3.586873 H        1 UNL1     0.0628
     74 H         4.255131   -0.762181   -2.993955 H        1 UNL1     0.1022
     75 H         -4.080873   -7.84259   -8.014576 H        1 UNL1     0.0279
     76 H         -3.795651   -8.708082   -6.557568 H        1 UNL1     0.0279
     77 H         -4.801309   -7.203916   -6.595422 H        1 UNL1     0.0279
     78 H         -4.183679   -5.124755   -7.870728 H        1 UNL1     0.1553
     79 H         -4.23192   -4.542781   -5.977264 H        1 UNL1     0.1484
     80 H         -3.871352   -1.329639   -3.980968 H        1 UNL1     0.0317
     81 H         -3.792038   -1.37183   -5.736489 H        1 UNL1     0.0317
     82 H         -5.643418   -3.061767   -5.837548 H        1 UNL1     0.0428
     83 H         -6.108563   -1.598238   -4.998843 H        1 UNL1     0.0428
     84 H         -5.045778   -4.927556   -2.572063 H        1 UNL1     0.0428
     85 H         -5.003051   -5.178538   -4.282123 H        1 UNL1     0.0428
     86 H         -2.82627   -4.722343   -3.151477 H        1 UNL1     0.0317
     87 H         -3.323139   -3.190958   -2.594401 H        1 UNL1     0.0317
     88 H         -7.338997   -4.582036   -3.790288 H        1 UNL1     0.0429
     89 H         -7.468787   -3.369299   -2.514098 H        1 UNL1     0.0429
     90 H         -7.590074   -2.759855   -5.530282 H        1 UNL1     0.0308
     91 H         -10.136043   -2.253441   -4.695176 H        1 UNL1     0.0233
     92 H         -9.638822   -3.849651   -5.311927 H        1 UNL1     0.0233
     93 H         -9.773344   -3.572564   -3.588637 H        1 UNL1     0.0233
     94 H         -7.600546   -1.090206   -3.092457 H        1 UNL1     0.0233
     95 H         -7.052087   -0.739171   -4.738754 H        1 UNL1     0.0233
     96 H         -8.783237   -0.646941   -4.340501 H        1 UNL1     0.0233
     97 H         3.731274   -1.553141   -9.671329 H        1 UNL1     0.0280
     98 H         2.540369   -1.24382   -10.90553 H        1 UNL1     0.0280
     99 H         2.792103   -0.050735   -9.596749 H        1 UNL1     0.0280
     100 H         -0.303321   -2.20929   -11.216447 H        1 UNL1     0.2922
     101 H         0.860585   -6.408575   -1.359166 H        1 UNL1     0.0236
     102 H         1.46605   -5.114419   -0.252534 H        1 UNL1     0.0236
     103 H         2.189829   -5.385871   -1.807511 H        1 UNL1     0.0236
     104 H         -0.435884   -3.450332   1.267943 H        1 UNL1     0.2098
     105 H         -1.303326   -1.054127   0.448269 H        1 UNL1     0.0234
     106 H         -0.270057   -0.232875   1.652011 H        1 UNL1     0.0234
     107 H         0.0   0.0   0.0 H        1 UNL1     0.0234
     108 H         2.476094   -1.208211   -1.294722 H        1 UNL1     0.2098
     109 H         0.010798   1.640684   -2.566279 H        1 UNL1     0.0234
     110 H         0.311678   0.066575   -1.763499 H        1 UNL1     0.0234
     111 H         -0.614439   1.290816   -0.968273 H        1 UNL1     0.0234
     112 H         -0.154805   -0.247587   3.55144 H        1 UNL1     0.0342
     113 H         -1.066194   0.09749   2.038652 H        1 UNL1     0.0342
     114 H         0.640795   -0.349233   1.970864 H        1 UNL1     0.0342
     115 H         4.669834   0.335164   2.14928 H        1 UNL1     0.0234
     116 H         4.771626   0.569612   0.401293 H        1 UNL1     0.0234
     117 H         4.32972   1.877682   1.518127 H        1 UNL1     0.0234
     118 H         0.578703   0.739603   -5.462868 H        1 UNL1     0.0309
     119 H         2.176676   1.516992   -5.23879 H        1 UNL1     0.0309
     120 H         1.573033   1.097286   -6.826751 H        1 UNL1     0.0309
     121 H         5.788022   1.737246   -0.473857 H        1 UNL1     0.0524
     122 H         5.428364   2.453285   -2.050179 H        1 UNL1     0.0524
     123 H         4.553705   3.019266   -0.605057 H        1 UNL1     0.0524
@<TRIPOS>BOND
     1     1     2    1
     2     1    42    1
     3     2     3    2
     4     3     4    1
     5     4     5    2
     6     5     7    1
     7     6    75    1
     8     6    76    1
     9     6    77    1
    10     7     9   am
    11     9    10    1
    12    10    11    2
    13    10    43    1
    14    11    14    1
    15    11    15    1
    16    12    13   ar
    17    12    27   ar
    18    12    43    1
    19    13    14    1
    20    13    30   ar
    21    14    17    2
    22    15    16    1
    23    16    17    1
    24    16    18    1
    25    16    22    1
    26    18    19    1
    27    19    20    1
    28    20    21    1
    29    21    22    1
    30    23    24    1
    31    23    88    1
    32    23    89    1
    33    24    25    1
    34    24    26    1
    35    24    90    1
    36    25    91    1
    37    25    92    1
    38    25    93    1
    39    26    94    1
    40    26    95    1
    41    26    96    1
    42    27    28   ar
    43    28    29   ar
    44    29    30   ar
    45    29    31    1
    46    30    33    1
    47    31    32    1
    48    32    33    1
    49    32    35    1
    50    34    97    1
    51    34    98    1
    52    34    99    1
    53    35    61    1
    54    36    37    1
    55    36    60    1
    56    37    38    1
    57    38    39    1
    58    39    40    1
    59    40    41    1
    60    41    42    1
    61    45   100    1
    62    47   101    1
    63    47   102    1
    64    47   103    1
    65    48   104    1
    66    49   105    1
    67    49   106    1
    68    49   107    1
    69    50   108    1
    70    51    59    1
    71    52   109    1
    72    52   110    1
    73    52   111    1
    74    53    54    1
    75    54    55    2
    76    54    56    1
    77    56   112    1
    78    56   113    1
    79    56   114    1
    80    57   115    1
    81    57   116    1
    82    57   117    1
    83    58   118    1
    84    58   119    1
    85    58   120    1
    86    59   121    1
    87    59   122    1
    88    59   123    1
    89    60    61    2
    90     1    47    1
    91     1    62    1
    92     2    63    1
    93     3    64    1
    94     4    65    1
    95     5     6    1
    96     7     8    2
    97     9    78    1
    98    15    79    1
    99    18    80    1
   100    18    81    1
   101    19    82    1
   102    19    83    1
   103    20    23    1
   104    21    84    1
   105    21    85    1
   106    22    86    1
   107    22    87    1
   108    27    45    1
   109    28    34    1
   110    32    58    1
   111    33    46    2
   112    36    51    1
   113    36    66    1
   114    37    52    1
   115    37    67    1
   116    38    53    1
   117    38    68    1
   118    42    48    1
   119    42    72    1
   120    43    44    2
   121    60    73    1
   122    61    74    1
   123    39    69    1
   124    39    57    1
   125    40    70    1
   126    40    50    1
   127    41    71    1
   128    41    49    1
