@<TRIPOS>MOLECULE
*****
 123 128 0 0 0
SMALL
GASTEIGER

@<TRIPOS>ATOM
     1 C         4.600851   0.858962   2.804597 C.3        1 UNL1     0.0009
     2 C         6.448629   0.952904   2.686566 C.2        1 UNL1     -0.0787
     3 C         7.754426   0.384781   2.947671 C.2        1 UNL1     -0.0649
     4 C         9.261021   0.957885   2.429906 C.2        1 UNL1     -0.0542
     5 C         10.616373   0.616152   2.199002 C.2        1 UNL1     0.0115
     6 C         11.689064   -0.486181   2.416993 C.3        1 UNL1     -0.0348
     7 C         11.508552   1.566855   1.262429 C.2        1 UNL1     0.2441
     8 O         12.321576   2.365492   1.707059 O.2        1 UNL1     -0.2702
     9 N         11.483702   1.238379   -0.104187 N.am        1 UNL1     -0.2772
     10 C         10.438158   1.875344   -0.732229 C.2        1 UNL1     0.1049
     11 C         9.25825   1.289688   -0.637119 C.2        1 UNL1     0.0801
     12 C         9.349638   4.111865   -0.997616 C.ar        1 UNL1     0.0753
     13 C         8.114742   3.461042   -0.681279 C.ar        1 UNL1     0.0305
     14 C         8.010984   2.004825   -0.6203 C.2        1 UNL1     0.0924
     15 N         8.93733   0.058761   -0.203119 N.pl3        1 UNL1     -0.3170
     16 C         7.537808   -0.148522   -0.465083 C.3        1 UNL1     0.1275
     17 N         6.939791   1.23696   -0.441821 N.2        1 UNL1     -0.2557
     18 C         7.414998   -0.638657   -1.904662 C.3        1 UNL1     0.0016
     19 C         8.275477   -1.881104   -2.070468 C.3        1 UNL1     0.0026
     20 N         7.818326   -2.895524   -1.130791 N.3        1 UNL1     -0.3018
     21 C         7.841049   -2.49403   0.277277 C.3        1 UNL1     0.0026
     22 C         6.966733   -1.247189   0.421682 C.3        1 UNL1     0.0016
     23 C         8.366178   -4.208483   -1.407629 C.3        1 UNL1     0.0012
     24 C         9.044556   -4.229267   -2.786444 C.3        1 UNL1     -0.0339
     25 C         8.885151   -5.59673   -3.471056 C.3        1 UNL1     -0.0615
     26 C         8.501699   -3.104658   -3.650933 C.3        1 UNL1     -0.0615
     27 C         9.413855   5.492212   -1.17265 C.ar        1 UNL1     0.1347
     28 C         8.306834   6.318462   -1.096065 C.ar        1 UNL1     0.0342
     29 C         7.110951   5.661977   -0.735433 C.ar        1 UNL1     0.1435
     30 C         7.038564   4.284948   -0.521487 C.ar        1 UNL1     0.0774
     31 O         5.925862   6.31044   -0.727289 O.3        1 UNL1     -0.4436
     32 C         4.941354   5.267516   -0.789956 C.3        1 UNL1     0.3143
     33 C         5.637821   4.032623   -0.254994 C.2        1 UNL1     0.2504
     34 C         8.252395   7.760824   -1.516454 C.3        1 UNL1     -0.0327
     35 O         3.907407   5.601063   0.144363 O.2        1 UNL1     -0.4528
     36 C         0.710398   4.12177   -1.269468 C.3        1 UNL1     0.0854
     37 C         0.387856   2.625372   -1.649312 C.3        1 UNL1     0.0236
     38 C         -0.915656   2.014587   -0.942528 C.3        1 UNL1     0.1131
     39 C         -1.087879   2.134959   0.625311 C.3        1 UNL1     0.0200
     40 C         0.201235   1.840028   1.641991 C.3        1 UNL1     0.0661
     41 C         1.215543   0.481246   1.591997 C.3        1 UNL1     0.0091
     42 C         2.995777   0.309487   2.000249 C.3        1 UNL1     0.0661
     43 C         10.542692   3.258156   -1.221367 C.2        1 UNL1     0.2131
     44 O         11.517232   3.616771   -1.857295 O.2        1 UNL1     -0.2851
     45 O         10.662872   6.051975   -1.433532 O.3        1 UNL1     -0.5056
     46 O         5.148802   3.067788   0.288889 O.2        1 UNL1     -0.2836
     47 C         4.136286   1.173183   4.252156 C.3        1 UNL1     -0.0566
     48 O         2.80592   -0.907416   2.826213 O.3        1 UNL1     -0.3909
     49 C         0.989826   -0.248455   0.286592 C.3        1 UNL1     -0.0577
     50 O         0.970809   3.010859   1.828098 O.3        1 UNL1     -0.3910
     51 O         -0.071419   4.677324   -0.236243 O.3        1 UNL1     -0.3753
     52 C         1.68955   1.785211   -1.860665 C.3        1 UNL1     -0.0564
     53 O         -1.398789   0.740652   -1.571811 O.3        1 UNL1     -0.4608
     54 C         -2.258349   -0.156007   -0.992942 C.2        1 UNL1     0.3042
     55 O         -1.974404   -1.23551   -0.475364 O.2        1 UNL1     -0.2512
     56 C         -3.68621   0.310123   -0.967439 C.3        1 UNL1     0.0332
     57 C         -1.984336   3.427665   0.914185 C.3        1 UNL1     -0.0567
     58 C         4.626405   5.052788   -2.288699 C.3        1 UNL1     0.0210
     59 C         -0.172091   6.100411   -0.259772 C.3        1 UNL1     0.0372
     60 C         2.132794   4.390046   -0.92309 C.2        1 UNL1     -0.0208
     61 C         2.660394   5.096608   0.077486 C.2        1 UNL1     0.0882
     62 H         4.536402   1.799423   2.244159 H        1 UNL1     0.0365
     63 H         6.57378   1.937874   2.231989 H        1 UNL1     0.0576
     64 H         7.868967   -0.606399   3.392138 H        1 UNL1     0.0615
     65 H         9.048213   1.972043   2.08108 H        1 UNL1     0.0622
     66 H         0.512238   4.689018   -2.189799 H        1 UNL1     0.0645
     67 H         0.061088   2.680528   -2.70228 H        1 UNL1     0.0362
     68 H         -1.684316   2.675037   -1.37205 H        1 UNL1     0.0741
     69 H         -1.818823   1.407368   0.952022 H        1 UNL1     0.0359
     70 H         -0.337581   1.708038   2.599757 H        1 UNL1     0.0600
     71 H         0.686673   -0.181091   2.305133 H        1 UNL1     0.0348
     72 H         2.659934   1.234419   2.491193 H        1 UNL1     0.0602
     73 H         2.756739   4.021083   -1.698852 H        1 UNL1     0.0628
     74 H         2.099112   5.459371   0.93923 H        1 UNL1     0.1022
     75 H         12.69963   -0.113556   2.122136 H        1 UNL1     0.0279
     76 H         11.849265   -0.811164   3.442561 H        1 UNL1     0.0279
     77 H         11.565595   -1.340449   1.735316 H        1 UNL1     0.0279
     78 H         11.341494   0.236329   -0.212588 H        1 UNL1     0.1553
     79 H         9.594876   -0.695947   -0.132529 H        1 UNL1     0.1484
     80 H         6.360905   -0.849586   -2.121831 H        1 UNL1     0.0317
     81 H         7.731315   0.136921   -2.610405 H        1 UNL1     0.0317
     82 H         9.343015   -1.659357   -1.925198 H        1 UNL1     0.0428
     83 H         8.174657   -2.212793   -3.104329 H        1 UNL1     0.0428
     84 H         7.41863   -3.243372   0.95393 H        1 UNL1     0.0428
     85 H         8.866499   -2.350453   0.644911 H        1 UNL1     0.0428
     86 H         6.899162   -1.06164   1.477614 H        1 UNL1     0.0317
     87 H         5.932944   -1.479562   0.138168 H        1 UNL1     0.0317
     88 H         9.121761   -4.431443   -0.642987 H        1 UNL1     0.0429
     89 H         7.594937   -4.986005   -1.334005 H        1 UNL1     0.0429
     90 H         10.114377   -4.022892   -2.663543 H        1 UNL1     0.0308
     91 H         7.854992   -5.958704   -3.401422 H        1 UNL1     0.0233
     92 H         9.174367   -5.538147   -4.522974 H        1 UNL1     0.0233
     93 H         9.523844   -6.366211   -3.020715 H        1 UNL1     0.0233
     94 H         8.66544   -3.32988   -4.710319 H        1 UNL1     0.0233
     95 H         7.425112   -2.997253   -3.491601 H        1 UNL1     0.0233
     96 H         8.989281   -2.153267   -3.420528 H        1 UNL1     0.0233
     97 H         8.685601   8.419517   -0.76967 H        1 UNL1     0.0280
     98 H         8.814983   7.94385   -2.441253 H        1 UNL1     0.0280
     99 H         7.203217   8.05992   -1.674135 H        1 UNL1     0.0280
     100 H         11.060127   5.765609   -2.237152 H        1 UNL1     0.2922
     101 H         4.912431   0.880654   4.959038 H        1 UNL1     0.0236
     102 H         3.171375   0.731118   4.498141 H        1 UNL1     0.0236
     103 H         4.0002   2.254958   4.417791 H        1 UNL1     0.0236
     104 H         3.440949   -1.579941   2.510904 H        1 UNL1     0.2098
     105 H         1.655125   0.054388   -0.518066 H        1 UNL1     0.0234
     106 H         0.968106   -1.334955   0.370093 H        1 UNL1     0.0234
     107 H         0.0   0.0   0.0 H        1 UNL1     0.0234
     108 H         0.346598   3.753568   1.939956 H        1 UNL1     0.2098
     109 H         1.494196   0.7039   -1.842917 H        1 UNL1     0.0234
     110 H         2.225456   2.045701   -2.779737 H        1 UNL1     0.0234
     111 H         2.422964   1.96787   -1.063993 H        1 UNL1     0.0234
     112 H         -3.954726   0.740038   -1.937191 H        1 UNL1     0.0342
     113 H         -4.372828   -0.488435   -0.690481 H        1 UNL1     0.0342
     114 H         -3.774991   1.102537   -0.211553 H        1 UNL1     0.0342
     115 H         -1.401061   4.233033   1.381476 H        1 UNL1     0.0234
     116 H         -2.464155   3.842759   0.025635 H        1 UNL1     0.0234
     117 H         -2.765038   3.260313   1.676051 H        1 UNL1     0.0234
     118 H         3.756561   5.647231   -2.618872 H        1 UNL1     0.0309
     119 H         5.477432   5.270038   -2.941966 H        1 UNL1     0.0309
     120 H         4.327838   4.022715   -2.512111 H        1 UNL1     0.0309
     121 H         -0.369383   6.433853   0.758683 H        1 UNL1     0.0524
     122 H         0.763759   6.58061   -0.590876 H        1 UNL1     0.0524
     123 H         -0.979002   6.40928   -0.918246 H        1 UNL1     0.0524
@<TRIPOS>BOND
     1     1     2    1
     2     1    42    1
     3     2     3    2
     4     3     4    1
     5     4     5    2
     6     5     7    1
     7     6    75    1
     8     6    76    1
     9     6    77    1
    10     7     9   am
    11     9    10    1
    12    10    11    2
    13    10    43    1
    14    11    14    1
    15    11    15    1
    16    12    13   ar
    17    12    27   ar
    18    12    43    1
    19    13    14    1
    20    13    30   ar
    21    14    17    2
    22    15    16    1
    23    16    17    1
    24    16    18    1
    25    16    22    1
    26    18    19    1
    27    19    20    1
    28    20    21    1
    29    21    22    1
    30    23    24    1
    31    23    88    1
    32    23    89    1
    33    24    25    1
    34    24    26    1
    35    24    90    1
    36    25    91    1
    37    25    92    1
    38    25    93    1
    39    26    94    1
    40    26    95    1
    41    26    96    1
    42    27    28   ar
    43    28    29   ar
    44    29    30   ar
    45    29    31    1
    46    30    33    1
    47    31    32    1
    48    32    33    1
    49    32    35    1
    50    34    97    1
    51    34    98    1
    52    34    99    1
    53    35    61    1
    54    36    37    1
    55    36    60    1
    56    37    38    1
    57    38    39    1
    58    39    40    1
    59    40    41    1
    60    41    42    1
    61    45   100    1
    62    47   101    1
    63    47   102    1
    64    47   103    1
    65    48   104    1
    66    49   105    1
    67    49   106    1
    68    49   107    1
    69    50   108    1
    70    51    59    1
    71    52   109    1
    72    52   110    1
    73    52   111    1
    74    53    54    1
    75    54    55    2
    76    54    56    1
    77    56   112    1
    78    56   113    1
    79    56   114    1
    80    57   115    1
    81    57   116    1
    82    57   117    1
    83    58   118    1
    84    58   119    1
    85    58   120    1
    86    59   121    1
    87    59   122    1
    88    59   123    1
    89    60    61    2
    90     1    47    1
    91     1    62    1
    92     2    63    1
    93     3    64    1
    94     4    65    1
    95     5     6    1
    96     7     8    2
    97     9    78    1
    98    15    79    1
    99    18    80    1
   100    18    81    1
   101    19    82    1
   102    19    83    1
   103    20    23    1
   104    21    84    1
   105    21    85    1
   106    22    86    1
   107    22    87    1
   108    27    45    1
   109    28    34    1
   110    32    58    1
   111    33    46    2
   112    36    51    1
   113    36    66    1
   114    37    52    1
   115    37    67    1
   116    38    53    1
   117    38    68    1
   118    42    48    1
   119    42    72    1
   120    43    44    2
   121    60    73    1
   122    61    74    1
   123    39    69    1
   124    39    57    1
   125    40    70    1
   126    40    50    1
   127    41    71    1
   128    41    49    1
