@<TRIPOS>MOLECULE
*****
 123 128 0 0 0
SMALL
GASTEIGER

@<TRIPOS>ATOM
     1 C         3.324845   -0.251826   2.434605 C.3        1 UNL1     0.0009
     2 C         3.667309   0.68271   3.998702 C.2        1 UNL1     -0.0787
     3 C         4.264013   1.810363   4.683092 C.2        1 UNL1     -0.0649
     4 C         4.118622   2.232055   6.316308 C.2        1 UNL1     -0.0542
     5 C         4.243846   3.281135   7.260145 C.2        1 UNL1     0.0115
     6 C         4.758663   4.732474   7.464847 C.3        1 UNL1     -0.0348
     7 C         3.527533   3.130371   8.688835 C.2        1 UNL1     0.2441
     8 O         4.133555   2.83263   9.70894 O.2        1 UNL1     -0.2702
     9 N         2.209501   3.616389   8.741073 N.am        1 UNL1     -0.2772
     10 C         1.320084   2.632765   8.373999 C.2        1 UNL1     0.1049
     11 C         1.138083   2.467373   7.076407 C.2        1 UNL1     0.0801
     12 C         0.717533   0.243014   8.802198 C.ar        1 UNL1     0.0753
     13 C         0.738165   0.065098   7.382153 C.ar        1 UNL1     0.0305
     14 C         0.82005   1.203282   6.469527 C.2        1 UNL1     0.0924
     15 N         1.519461   3.240457   6.045185 N.pl3        1 UNL1     -0.3170
     16 C         0.924522   2.70375   4.850091 C.3        1 UNL1     0.1275
     17 N         0.751894   1.233054   5.141598 N.2        1 UNL1     -0.2557
     18 C         -0.483111   3.282977   4.746326 C.3        1 UNL1     0.0016
     19 C         -0.387923   4.800144   4.773422 C.3        1 UNL1     0.0026
     20 N         0.44179   5.236752   3.65898 N.3        1 UNL1     -0.3018
     21 C         1.796976   4.682308   3.638236 C.3        1 UNL1     0.0026
     22 C         1.677482   3.157642   3.606475 C.3        1 UNL1     0.0016
     23 C         0.354057   6.662798   3.415386 C.3        1 UNL1     0.0012
     24 C         -0.843553   7.26493   4.167 C.3        1 UNL1     -0.0339
     25 C         -0.395867   8.347202   5.163154 C.3        1 UNL1     -0.0615
     26 C         -1.862336   7.80305   3.17741 C.3        1 UNL1     -0.0615
     27 C         0.517942   -0.834667   9.661783 C.ar        1 UNL1     0.1347
     28 C         0.288949   -2.125261   9.219087 C.ar        1 UNL1     0.0342
     29 C         0.362355   -2.28492   7.818985 C.ar        1 UNL1     0.1435
     30 C         0.597466   -1.220857   6.94737 C.ar        1 UNL1     0.0774
     31 O         0.053628   -3.459037   7.226413 O.3        1 UNL1     -0.4436
     32 C         -0.217179   -3.115079   5.859215 C.3        1 UNL1     0.3143
     33 C         0.515255   -1.80905   5.62675 C.2        1 UNL1     0.2504
     34 C         -0.179738   -3.277064   10.063943 C.3        1 UNL1     -0.0327
     35 O         0.418736   -4.101979   5.037697 O.2        1 UNL1     -0.4528
     36 C         -1.695978   -4.360472   1.89616 C.3        1 UNL1     0.0854
     37 C         -2.093897   -3.233116   0.867445 C.3        1 UNL1     0.0236
     38 C         -1.713742   -3.546067   -0.658755 C.3        1 UNL1     0.1131
     39 C         -0.243022   -3.999408   -1.02445 C.3        1 UNL1     0.0200
     40 C         1.071764   -3.232533   -0.342043 C.3        1 UNL1     0.0661
     41 C         1.321226   -1.555846   -0.278036 C.3        1 UNL1     0.0091
     42 C         2.165185   -0.525607   0.983608 C.3        1 UNL1     0.0661
     43 C         0.826405   1.627051   9.326456 C.2        1 UNL1     0.2131
     44 O         0.441395   1.959992   10.432646 O.2        1 UNL1     -0.2851
     45 O         0.557547   -0.583116   11.031671 O.3        1 UNL1     -0.5056
     46 O         0.952265   -1.364595   4.588802 O.2        1 UNL1     -0.2836
     47 C         4.599903   -1.002438   1.964725 C.3        1 UNL1     -0.0566
     48 O         2.958117   0.240955   -0.007732 O.3        1 UNL1     -0.3909
     49 C         0.025867   -0.856172   -0.624436 C.3        1 UNL1     -0.0577
     50 O         1.404289   -3.818278   0.900557 O.3        1 UNL1     -0.3910
     51 O         -0.908999   -5.41199   1.383905 O.3        1 UNL1     -0.3753
     52 C         -1.94644   -1.80399   1.484538 C.3        1 UNL1     -0.0564
     53 O         -2.400512   -2.647346   -1.64515 O.3        1 UNL1     -0.4608
     54 C         -3.42713   -1.786855   -1.356119 C.2        1 UNL1     0.3042
     55 O         -4.620141   -1.932267   -1.619595 O.2        1 UNL1     -0.2512
     56 C         -2.995399   -0.574111   -0.581798 C.3        1 UNL1     0.0332
     57 C         -0.22972   -5.597969   -1.075439 C.3        1 UNL1     -0.0567
     58 C         -1.739105   -2.856921   5.766329 C.3        1 UNL1     0.0210
     59 C         0.16235   -5.826143   2.2304 C.3        1 UNL1     0.0372
     60 C         -1.015676   -3.875979   3.128076 C.2        1 UNL1     -0.0208
     61 C         0.060524   -4.343561   3.762036 C.2        1 UNL1     0.0882
     62 H         2.734884   -0.970666   3.01592 H        1 UNL1     0.0365
     63 H         3.225515   0.01127   4.737928 H        1 UNL1     0.0576
     64 H         4.75588   2.617375   4.135455 H        1 UNL1     0.0615
     65 H         3.694108   1.337319   6.779685 H        1 UNL1     0.0622
     66 H         -2.6551   -4.782561   2.227778 H        1 UNL1     0.0645
     67 H         -3.196293   -3.278757   0.832827 H        1 UNL1     0.0362
     68 H         -2.342877   -4.433467   -0.826781 H        1 UNL1     0.0741
     69 H         -0.084364   -3.844877   -2.083391 H        1 UNL1     0.0359
     70 H         1.869161   -3.572449   -1.030284 H        1 UNL1     0.0600
     71 H         1.902037   -1.411127   -1.210062 H        1 UNL1     0.0348
     72 H         2.525896   -1.552613   1.140007 H        1 UNL1     0.0602
     73 H         -1.598968   -3.106455   3.569496 H        1 UNL1     0.0628
     74 H         0.742845   -5.088629   3.351489 H        1 UNL1     0.1022
     75 H         5.790866   4.84395   7.053552 H        1 UNL1     0.0279
     76 H         4.213769   5.518168   6.946345 H        1 UNL1     0.0279
     77 H         4.919313   4.981286   8.524085 H        1 UNL1     0.0279
     78 H         2.10268   4.386617   8.084251 H        1 UNL1     0.1553
     79 H         1.776662   4.205929   6.138156 H        1 UNL1     0.1484
     80 H         -0.948601   2.927368   3.819165 H        1 UNL1     0.0317
     81 H         -1.113448   2.929218   5.569235 H        1 UNL1     0.0317
     82 H         0.010958   5.166012   5.730995 H        1 UNL1     0.0428
     83 H         -1.402661   5.192553   4.700131 H        1 UNL1     0.0428
     84 H         2.371873   4.962228   2.750007 H        1 UNL1     0.0428
     85 H         2.403234   5.053144   4.476238 H        1 UNL1     0.0428
     86 H         2.676563   2.791939   3.457862 H        1 UNL1     0.0317
     87 H         1.153542   2.841728   2.6961 H        1 UNL1     0.0317
     88 H         1.27348   7.130639   3.790995 H        1 UNL1     0.0429
     89 H         0.297785   6.88112   2.341169 H        1 UNL1     0.0429
     90 H         -1.355872   6.470046   4.72189 H        1 UNL1     0.0308
     91 H         0.508824   8.85623   4.817426 H        1 UNL1     0.0233
     92 H         -1.187384   9.085131   5.313388 H        1 UNL1     0.0233
     93 H         -0.169997   7.935009   6.15407 H        1 UNL1     0.0233
     94 H         -1.961735   8.888068   3.290065 H        1 UNL1     0.0233
     95 H         -1.533558   7.59904   2.154547 H        1 UNL1     0.0233
     96 H         -2.845217   7.348343   3.329576 H        1 UNL1     0.0233
     97 H         0.534311   -4.09519   10.069738 H        1 UNL1     0.0280
     98 H         -0.317013   -2.990532   11.114805 H        1 UNL1     0.0280
     99 H         -1.13728   -3.6569   9.671598 H        1 UNL1     0.0280
     100 H         -0.166295   -0.939309   11.516235 H        1 UNL1     0.2922
     101 H         4.502861   -2.065383   2.184693 H        1 UNL1     0.0236
     102 H         5.519031   -0.582714   2.372181 H        1 UNL1     0.0236
     103 H         4.729588   -0.95376   0.870647 H        1 UNL1     0.0236
     104 H         2.658288   1.170289   0.029842 H        1 UNL1     0.2098
     105 H         -0.040159   -0.518081   -1.655526 H        1 UNL1     0.0234
     106 H         -0.875297   -1.403273   -0.347827 H        1 UNL1     0.0234
     107 H         -0.0   0.0   0.0 H        1 UNL1     0.0234
     108 H         1.940382   -4.612664   0.712609 H        1 UNL1     0.2098
     109 H         -2.863621   -1.473142   1.991519 H        1 UNL1     0.0234
     110 H         -1.096875   -1.716895   2.170394 H        1 UNL1     0.0234
     111 H         -1.744321   -1.048953   0.713167 H        1 UNL1     0.0234
     112 H         -3.86222   0.058085   -0.366629 H        1 UNL1     0.0342
     113 H         -2.468116   -0.838902   0.333463 H        1 UNL1     0.0342
     114 H         -2.303581   0.004975   -1.208863 H        1 UNL1     0.0342
     115 H         0.306917   -6.029438   -0.219259 H        1 UNL1     0.0234
     116 H         -1.223403   -6.049587   -1.101586 H        1 UNL1     0.0234
     117 H         0.352288   -6.006356   -1.919495 H        1 UNL1     0.0234
     118 H         -2.12548   -3.018702   4.744788 H        1 UNL1     0.0309
     119 H         -2.321091   -3.461381   6.469268 H        1 UNL1     0.0309
     120 H         -2.001937   -1.8138   5.973511 H        1 UNL1     0.0309
     121 H         1.061707   -5.305513   1.902591 H        1 UNL1     0.0524
     122 H         -0.010602   -5.557611   3.285869 H        1 UNL1     0.0524
     123 H         0.304159   -6.900778   2.158673 H        1 UNL1     0.0524
@<TRIPOS>BOND
     1     1     2    1
     2     1    42    1
     3     2     3    2
     4     3     4    1
     5     4     5    2
     6     5     7    1
     7     6    75    1
     8     6    76    1
     9     6    77    1
    10     7     9   am
    11     9    10    1
    12    10    11    2
    13    10    43    1
    14    11    14    1
    15    11    15    1
    16    12    13   ar
    17    12    27   ar
    18    12    43    1
    19    13    14    1
    20    13    30   ar
    21    14    17    2
    22    15    16    1
    23    16    17    1
    24    16    18    1
    25    16    22    1
    26    18    19    1
    27    19    20    1
    28    20    21    1
    29    21    22    1
    30    23    24    1
    31    23    88    1
    32    23    89    1
    33    24    25    1
    34    24    26    1
    35    24    90    1
    36    25    91    1
    37    25    92    1
    38    25    93    1
    39    26    94    1
    40    26    95    1
    41    26    96    1
    42    27    28   ar
    43    28    29   ar
    44    29    30   ar
    45    29    31    1
    46    30    33    1
    47    31    32    1
    48    32    33    1
    49    32    35    1
    50    34    97    1
    51    34    98    1
    52    34    99    1
    53    35    61    1
    54    36    37    1
    55    36    60    1
    56    37    38    1
    57    38    39    1
    58    39    40    1
    59    40    41    1
    60    41    42    1
    61    45   100    1
    62    47   101    1
    63    47   102    1
    64    47   103    1
    65    48   104    1
    66    49   105    1
    67    49   106    1
    68    49   107    1
    69    50   108    1
    70    51    59    1
    71    52   109    1
    72    52   110    1
    73    52   111    1
    74    53    54    1
    75    54    55    2
    76    54    56    1
    77    56   112    1
    78    56   113    1
    79    56   114    1
    80    57   115    1
    81    57   116    1
    82    57   117    1
    83    58   118    1
    84    58   119    1
    85    58   120    1
    86    59   121    1
    87    59   122    1
    88    59   123    1
    89    60    61    2
    90     1    47    1
    91     1    62    1
    92     2    63    1
    93     3    64    1
    94     4    65    1
    95     5     6    1
    96     7     8    2
    97     9    78    1
    98    15    79    1
    99    18    80    1
   100    18    81    1
   101    19    82    1
   102    19    83    1
   103    20    23    1
   104    21    84    1
   105    21    85    1
   106    22    86    1
   107    22    87    1
   108    27    45    1
   109    28    34    1
   110    32    58    1
   111    33    46    2
   112    36    51    1
   113    36    66    1
   114    37    52    1
   115    37    67    1
   116    38    53    1
   117    38    68    1
   118    42    48    1
   119    42    72    1
   120    43    44    2
   121    60    73    1
   122    61    74    1
   123    39    69    1
   124    39    57    1
   125    40    70    1
   126    40    50    1
   127    41    71    1
   128    41    49    1
