@<TRIPOS>MOLECULE
*****
 123 128 0 0 0
SMALL
GASTEIGER

@<TRIPOS>ATOM
     1 C         1.552325   2.090651   3.221947 C.3        1 UNL1     0.0009
     2 C         2.435132   3.720464   3.184581 C.2        1 UNL1     -0.0787
     3 C         3.665804   4.482918   3.197151 C.2        1 UNL1     -0.0649
     4 C         3.857041   6.153398   2.998953 C.2        1 UNL1     -0.0542
     5 C         4.767398   7.186272   2.665039 C.2        1 UNL1     0.0115
     6 C         6.26543   7.505726   2.40586 C.3        1 UNL1     -0.0348
     7 C         4.190615   8.62309   2.240934 C.2        1 UNL1     0.2441
     8 O         4.17585   9.584028   2.997839 O.2        1 UNL1     -0.2702
     9 N         3.944958   8.776479   0.865334 N.am        1 UNL1     -0.2772
     10 C         2.672232   8.355577   0.554958 C.2        1 UNL1     0.1049
     11 C         2.517266   7.056953   0.371153 C.2        1 UNL1     0.0801
     12 C         0.28203   8.580405   1.257609 C.ar        1 UNL1     0.0753
     13 C         0.225461   7.150285   1.244798 C.ar        1 UNL1     0.0305
     14 C         1.304081   6.346955   0.673579 C.2        1 UNL1     0.0924
     15 N         3.438521   6.088492   0.230081 N.pl3        1 UNL1     -0.3170
     16 C         2.749658   4.873992   -0.117357 C.3        1 UNL1     0.1275
     17 N         1.376486   5.031861   0.488613 N.2        1 UNL1     -0.2557
     18 C         2.548933   4.884812   -1.629737 C.3        1 UNL1     0.0016
     19 C         3.903894   5.051488   -2.298983 C.3        1 UNL1     0.0026
     20 N         4.765049   3.94954   -1.892593 N.3        1 UNL1     -0.3018
     21 C         4.968411   3.819432   -0.448265 C.3        1 UNL1     0.0026
     22 C         3.595061   3.648428   0.20332 C.3        1 UNL1     0.0016
     23 C         5.966063   3.846038   -2.697265 C.3        1 UNL1     0.0012
     24 C         6.090536   2.438083   -3.300527 C.3        1 UNL1     -0.0339
     25 C         5.775396   2.441198   -4.805431 C.3        1 UNL1     -0.0615
     26 C         7.471417   1.871419   -3.019744 C.3        1 UNL1     -0.0615
     27 C         -0.80026   9.341658   1.69265 C.ar        1 UNL1     0.1347
     28 C         -2.001611   8.788707   2.098917 C.ar        1 UNL1     0.0342
     29 C         -2.01715   7.377934   2.124294 C.ar        1 UNL1     0.1435
     30 C         -0.928041   6.601933   1.725693 C.ar        1 UNL1     0.0774
     31 O         -3.148917   6.690299   2.391258 O.3        1 UNL1     -0.4436
     32 C         -2.904824   5.374428   1.871859 C.3        1 UNL1     0.3143
     33 C         -1.39624   5.236158   1.836209 C.2        1 UNL1     0.2504
     34 C         -3.282053   9.539597   2.337101 C.3        1 UNL1     -0.0327
     35 O         -3.386848   4.437118   2.842608 O.2        1 UNL1     -0.4528
     36 C         -4.4801   1.37688   0.88102 C.3        1 UNL1     0.0854
     37 C         -3.644641   0.477224   -0.109006 C.3        1 UNL1     0.0236
     38 C         -3.630725   -1.086381   0.246929 C.3        1 UNL1     0.1131
     39 C         -3.261112   -1.554859   1.711915 C.3        1 UNL1     0.0200
     40 C         -1.981024   -0.858732   2.523839 C.3        1 UNL1     0.0661
     41 C         -0.413241   -0.646716   1.911698 C.3        1 UNL1     0.0091
     42 C         0.822348   0.670265   2.234628 C.3        1 UNL1     0.0661
     43 C         1.498711   9.228378   0.707994 C.2        1 UNL1     0.2131
     44 O         1.525203   10.376331   0.30273 O.2        1 UNL1     -0.2851
     45 O         -0.646867   10.726334   1.716708 O.3        1 UNL1     -0.5056
     46 O         -0.730144   4.227539   1.905893 O.2        1 UNL1     -0.2836
     47 C         1.573603   1.498609   4.656874 C.3        1 UNL1     -0.0566
     48 O         1.942176   -0.276442   2.455641 O.3        1 UNL1     -0.3909
     49 C         -0.438902   -0.870532   0.416124 C.3        1 UNL1     -0.0577
     50 O         -2.395119   0.307713   3.206228 O.3        1 UNL1     -0.3910
     51 O         -4.960874   0.734697   2.040282 O.3        1 UNL1     -0.3753
     52 C         -2.375349   1.220182   -0.639911 C.3        1 UNL1     -0.0564
     53 O         -3.140107   -1.953465   -0.875473 O.3        1 UNL1     -0.4608
     54 C         -2.898809   -3.299906   -0.792999 C.2        1 UNL1     0.3042
     55 O         -3.516981   -4.130086   -0.127792 O.2        1 UNL1     -0.2512
     56 C         -1.777497   -3.765234   -1.677783 C.3        1 UNL1     0.0332
     57 C         -4.630364   -1.757569   2.513309 C.3        1 UNL1     -0.0567
     58 C         -3.440574   5.370457   0.421175 C.3        1 UNL1     0.0210
     59 C         -6.229579   0.099124   1.890949 C.3        1 UNL1     0.0372
     60 C         -3.795667   2.61947   1.331222 C.2        1 UNL1     -0.0208
     61 C         -3.697348   3.160495   2.546282 C.2        1 UNL1     0.0882
     62 H         0.600564   2.62553   3.118186 H        1 UNL1     0.0365
     63 H         1.589027   4.410669   3.198493 H        1 UNL1     0.0576
     64 H         4.642325   3.99401   3.175197 H        1 UNL1     0.0615
     65 H         2.843794   6.547359   3.115606 H        1 UNL1     0.0622
     66 H         -5.345988   1.707033   0.290019 H        1 UNL1     0.0645
     67 H         -4.235387   0.484797   -1.041487 H        1 UNL1     0.0362
     68 H         -4.701892   -1.311129   0.130263 H        1 UNL1     0.0741
     69 H         -2.983599   -2.600126   1.683435 H        1 UNL1     0.0359
     70 H         -1.831959   -1.608978   3.32382 H        1 UNL1     0.0600
     71 H         0.060022   -1.584422   2.263388 H        1 UNL1     0.0348
     72 H         0.107946   0.713372   3.069545 H        1 UNL1     0.0602
     73 H         -3.451579   3.155925   0.482065 H        1 UNL1     0.0628
     74 H         -3.972501   2.652901   3.471418 H        1 UNL1     0.1022
     75 H         6.387531   8.058582   1.443324 H        1 UNL1     0.0279
     76 H         6.750811   8.167737   3.119454 H        1 UNL1     0.0279
     77 H         6.865812   6.604031   2.215632 H        1 UNL1     0.0279
     78 H         4.595817   8.200648   0.335354 H        1 UNL1     0.1553
     79 H         4.394876   6.261616   -0.019609 H        1 UNL1     0.1484
     80 H         2.064961   3.948518   -1.932871 H        1 UNL1     0.0317
     81 H         1.877121   5.696268   -1.929501 H        1 UNL1     0.0317
     82 H         4.361421   6.021802   -2.055935 H        1 UNL1     0.0428
     83 H         3.73741   5.058409   -3.376612 H        1 UNL1     0.0428
     84 H         5.552671   2.938344   -0.165181 H        1 UNL1     0.0428
     85 H         5.54163   4.662574   -0.038573 H        1 UNL1     0.0428
     86 H         3.790248   3.423985   1.235558 H        1 UNL1     0.0317
     87 H         3.114964   2.735046   -0.168617 H        1 UNL1     0.0317
     88 H         5.891425   4.572242   -3.517235 H        1 UNL1     0.0429
     89 H         6.859402   4.108123   -2.115861 H        1 UNL1     0.0429
     90 H         5.383704   1.767855   -2.797142 H        1 UNL1     0.0308
     91 H         5.324622   3.388724   -5.115429 H        1 UNL1     0.0233
     92 H         6.68161   2.266868   -5.390233 H        1 UNL1     0.0233
     93 H         5.072624   1.647538   -5.086591 H        1 UNL1     0.0233
     94 H         8.00665   1.697711   -3.959524 H        1 UNL1     0.0233
     95 H         8.053522   2.582342   -2.426697 H        1 UNL1     0.0233
     96 H         7.411163   0.924357   -2.476226 H        1 UNL1     0.0233
     97 H         -4.099926   8.876447   2.602707 H        1 UNL1     0.0280
     98 H         -3.194303   10.255125   3.165096 H        1 UNL1     0.0280
     99 H         -3.564182   10.087311   1.42304 H        1 UNL1     0.0280
     100 H         -0.533066   11.092774   2.576006 H        1 UNL1     0.2922
     101 H         1.169196   2.225786   5.360666 H        1 UNL1     0.0236
     102 H         2.557536   1.140978   4.958468 H        1 UNL1     0.0236
     103 H         0.913889   0.62004   4.752204 H        1 UNL1     0.0236
     104 H         2.719202   0.068087   1.973457 H        1 UNL1     0.2098
     105 H         0.139291   -1.727697   0.080307 H        1 UNL1     0.0234
     106 H         -1.435715   -0.891314   -0.024169 H        1 UNL1     0.0234
     107 H         0.0   0.0   -0.0 H        1 UNL1     0.0234
     108 H         -1.59637   0.718435   3.589734 H        1 UNL1     0.2098
     109 H         -1.83006   0.628932   -1.388773 H        1 UNL1     0.0234
     110 H         -2.596369   2.212806   -1.046841 H        1 UNL1     0.0234
     111 H         -1.655113   1.41694   0.16538 H        1 UNL1     0.0234
     112 H         -1.161541   -4.495879   -1.144771 H        1 UNL1     0.0342
     113 H         -2.141327   -4.173725   -2.619381 H        1 UNL1     0.0342
     114 H         -1.14421   -2.898858   -1.913377 H        1 UNL1     0.0342
     115 H         -5.110743   -2.714174   2.26566 H        1 UNL1     0.0234
     116 H         -4.519659   -1.71702   3.598735 H        1 UNL1     0.0234
     117 H         -5.419235   -1.041892   2.224467 H        1 UNL1     0.0234
     118 H         -3.952833   4.424943   0.170976 H        1 UNL1     0.0309
     119 H         -4.111894   6.208571   0.208814 H        1 UNL1     0.0309
     120 H         -2.638856   5.427987   -0.323167 H        1 UNL1     0.0309
     121 H         -6.857526   0.417007   2.722808 H        1 UNL1     0.0524
     122 H         -6.738684   0.39521   0.958649 H        1 UNL1     0.0524
     123 H         -6.112453   -0.980817   1.901053 H        1 UNL1     0.0524
@<TRIPOS>BOND
     1     1     2    1
     2     1    42    1
     3     2     3    2
     4     3     4    1
     5     4     5    2
     6     5     7    1
     7     6    75    1
     8     6    76    1
     9     6    77    1
    10     7     9   am
    11     9    10    1
    12    10    11    2
    13    10    43    1
    14    11    14    1
    15    11    15    1
    16    12    13   ar
    17    12    27   ar
    18    12    43    1
    19    13    14    1
    20    13    30   ar
    21    14    17    2
    22    15    16    1
    23    16    17    1
    24    16    18    1
    25    16    22    1
    26    18    19    1
    27    19    20    1
    28    20    21    1
    29    21    22    1
    30    23    24    1
    31    23    88    1
    32    23    89    1
    33    24    25    1
    34    24    26    1
    35    24    90    1
    36    25    91    1
    37    25    92    1
    38    25    93    1
    39    26    94    1
    40    26    95    1
    41    26    96    1
    42    27    28   ar
    43    28    29   ar
    44    29    30   ar
    45    29    31    1
    46    30    33    1
    47    31    32    1
    48    32    33    1
    49    32    35    1
    50    34    97    1
    51    34    98    1
    52    34    99    1
    53    35    61    1
    54    36    37    1
    55    36    60    1
    56    37    38    1
    57    38    39    1
    58    39    40    1
    59    40    41    1
    60    41    42    1
    61    45   100    1
    62    47   101    1
    63    47   102    1
    64    47   103    1
    65    48   104    1
    66    49   105    1
    67    49   106    1
    68    49   107    1
    69    50   108    1
    70    51    59    1
    71    52   109    1
    72    52   110    1
    73    52   111    1
    74    53    54    1
    75    54    55    2
    76    54    56    1
    77    56   112    1
    78    56   113    1
    79    56   114    1
    80    57   115    1
    81    57   116    1
    82    57   117    1
    83    58   118    1
    84    58   119    1
    85    58   120    1
    86    59   121    1
    87    59   122    1
    88    59   123    1
    89    60    61    2
    90     1    47    1
    91     1    62    1
    92     2    63    1
    93     3    64    1
    94     4    65    1
    95     5     6    1
    96     7     8    2
    97     9    78    1
    98    15    79    1
    99    18    80    1
   100    18    81    1
   101    19    82    1
   102    19    83    1
   103    20    23    1
   104    21    84    1
   105    21    85    1
   106    22    86    1
   107    22    87    1
   108    27    45    1
   109    28    34    1
   110    32    58    1
   111    33    46    2
   112    36    51    1
   113    36    66    1
   114    37    52    1
   115    37    67    1
   116    38    53    1
   117    38    68    1
   118    42    48    1
   119    42    72    1
   120    43    44    2
   121    60    73    1
   122    61    74    1
   123    39    69    1
   124    39    57    1
   125    40    70    1
   126    40    50    1
   127    41    71    1
   128    41    49    1
