@<TRIPOS>MOLECULE
*****
 123 128 0 0 0
SMALL
GASTEIGER

@<TRIPOS>ATOM
     1 C         5.154193   1.792877   0.468146 C.3        1 UNL1     0.0009
     2 C         6.59107   2.582062   -0.397652 C.2        1 UNL1     -0.0787
     3 C         7.877265   2.47188   -1.053099 C.2        1 UNL1     -0.0649
     4 C         8.751925   3.689384   -1.83987 C.2        1 UNL1     -0.0542
     5 C         9.775595   3.960289   -2.781034 C.2        1 UNL1     0.0115
     6 C         10.912271   3.316301   -3.621612 C.3        1 UNL1     -0.0348
     7 C         9.865903   5.425595   -3.430426 C.2        1 UNL1     0.2441
     8 O         10.682905   6.262834   -3.072565 O.2        1 UNL1     -0.2702
     9 N         9.121196   5.593611   -4.610822 N.am        1 UNL1     -0.2772
     10 C         7.834522   5.981797   -4.315691 C.2        1 UNL1     0.1049
     11 C         6.992657   5.014432   -3.999955 C.2        1 UNL1     0.0801
     12 C         6.518936   7.621587   -2.960089 C.ar        1 UNL1     0.0753
     13 C         5.763805   6.502876   -2.483778 C.ar        1 UNL1     0.0305
     14 C         5.891882   5.179464   -3.08977 C.2        1 UNL1     0.0924
     15 N         7.123784   3.682093   -4.119152 N.pl3        1 UNL1     -0.3170
     16 C         5.855602   3.084961   -3.794493 C.3        1 UNL1     0.1275
     17 N         5.208171   4.064849   -2.846666 N.2        1 UNL1     -0.2557
     18 C         5.009649   3.101806   -5.064052 C.3        1 UNL1     0.0016
     19 C         5.774854   2.389261   -6.167832 C.3        1 UNL1     0.0026
     20 N         6.050672   1.024722   -5.740062 N.3        1 UNL1     -0.3018
     21 C         6.807855   0.905356   -4.492347 C.3        1 UNL1     0.0026
     22 C         6.018793   1.623962   -3.3965 C.3        1 UNL1     0.0016
     23 C         6.50618   0.175522   -6.822659 C.3        1 UNL1     0.0012
     24 C         5.357799   -0.109537   -7.803331 C.3        1 UNL1     -0.0339
     25 C         5.394523   0.847832   -9.005892 C.3        1 UNL1     -0.0615
     26 C         5.397891   -1.56244   -8.244062 C.3        1 UNL1     -0.0615
     27 C         6.303953   8.903382   -2.459186 C.ar        1 UNL1     0.1347
     28 C         5.337911   9.195408   -1.51286 C.ar        1 UNL1     0.0342
     29 C         4.640238   8.070886   -1.023098 C.ar        1 UNL1     0.1435
     30 C         4.86989   6.775857   -1.489337 C.ar        1 UNL1     0.0774
     31 O         3.593766   8.203386   -0.179092 O.3        1 UNL1     -0.4436
     32 C         2.879975   6.962691   -0.288863 C.3        1 UNL1     0.3143
     33 C         3.901954   5.960339   -0.785919 C.2        1 UNL1     0.2504
     34 C         4.880761   10.571233   -1.115093 C.3        1 UNL1     -0.0327
     35 O         2.51435   6.562795   1.037656 O.2        1 UNL1     -0.4528
     36 C         -0.715276   4.600716   0.680102 C.3        1 UNL1     0.0854
     37 C         -1.008249   3.312496   -0.181396 C.3        1 UNL1     0.0236
     38 C         -1.606058   2.071672   0.64002 C.3        1 UNL1     0.1131
     39 C         -0.884697   1.583546   1.96049 C.3        1 UNL1     0.0200
     40 C         0.777039   1.449056   2.015103 C.3        1 UNL1     0.0661
     41 C         1.74743   0.651822   0.874765 C.3        1 UNL1     0.0091
     42 C         3.456099   1.007668   0.309763 C.3        1 UNL1     0.0661
     43 C         7.476518   7.386581   -4.069173 C.2        1 UNL1     0.2131
     44 O         7.875341   8.265461   -4.811633 O.2        1 UNL1     -0.2851
     45 O         7.112883   9.92931   -2.943482 O.3        1 UNL1     -0.5056
     46 O         3.924082   4.76129   -0.619651 O.2        1 UNL1     -0.2836
     47 C         5.544812   1.408255   1.920546 C.3        1 UNL1     -0.0566
     48 O         3.912254   -0.397754   0.435567 O.3        1 UNL1     -0.3909
     49 C         0.921658   0.377931   -0.3624 C.3        1 UNL1     -0.0577
     50 O         1.368016   2.681464   2.375159 O.3        1 UNL1     -0.3910
     51 O         -0.846195   4.451351   2.075803 O.3        1 UNL1     -0.3753
     52 C         0.043648   3.124319   -1.322908 C.3        1 UNL1     -0.0564
     53 O         -2.197579   1.003124   -0.232124 O.3        1 UNL1     -0.4608
     54 C         -2.42644   -0.29442   0.144615 C.2        1 UNL1     0.3042
     55 O         -1.849155   -1.302639   -0.260446 O.2        1 UNL1     -0.2512
     56 C         -3.471573   -0.434575   1.214553 C.3        1 UNL1     0.0332
     57 C         -1.616704   2.285122   3.197475 C.3        1 UNL1     -0.0567
     58 C         1.809582   7.169431   -1.385698 C.3        1 UNL1     0.0210
     59 C         -1.170335   5.649768   2.779079 C.3        1 UNL1     0.0372
     60 C         0.611391   5.230547   0.438384 C.2        1 UNL1     -0.0208
     61 C         1.516862   5.696548   1.29961 C.2        1 UNL1     0.0882
     62 H         4.672164   2.776375   0.523745 H        1 UNL1     0.0365
     63 H         6.318207   3.63692   -0.324921 H        1 UNL1     0.0576
     64 H         8.34169   1.501651   -1.243028 H        1 UNL1     0.0615
     65 H         8.257652   4.611713   -1.522873 H        1 UNL1     0.0622
     66 H         -1.462406   5.333394   0.343909 H        1 UNL1     0.0645
     67 H         -1.872062   3.598634   -0.806306 H        1 UNL1     0.0362
     68 H         -2.557596   2.513135   0.9735 H        1 UNL1     0.0741
     69 H         -1.21154   0.576707   2.183776 H        1 UNL1     0.0359
     70 H         0.887576   0.815624   2.915994 H        1 UNL1     0.0600
     71 H         1.794422   -0.356057   1.331853 H        1 UNL1     0.0348
     72 H         3.34186   1.523873   1.274023 H        1 UNL1     0.0602
     73 H         0.734048   5.397883   -0.602866 H        1 UNL1     0.0628
     74 H         1.494439   5.517374   2.375078 H        1 UNL1     0.1022
     75 H         10.960138   2.215792   -3.438248 H        1 UNL1     0.0279
     76 H         10.80576   3.369234   -4.702779 H        1 UNL1     0.0279
     77 H         11.913832   3.634006   -3.296589 H        1 UNL1     0.0279
     78 H         9.067153   4.708238   -5.110093 H        1 UNL1     0.1553
     79 H         7.794988   3.24003   -4.719983 H        1 UNL1     0.1484
     80 H         4.050102   2.611156   -4.860833 H        1 UNL1     0.0317
     81 H         4.778662   4.12878   -5.366742 H        1 UNL1     0.0317
     82 H         6.703859   2.918495   -6.426237 H        1 UNL1     0.0428
     83 H         5.154475   2.414446   -7.064239 H        1 UNL1     0.0428
     84 H         6.932376   -0.127314   -4.15191 H        1 UNL1     0.0428
     85 H         7.836401   1.276224   -4.601289 H        1 UNL1     0.0428
     86 H         6.53147   1.403487   -2.478599 H        1 UNL1     0.0317
     87 H         5.0414   1.144464   -3.262785 H        1 UNL1     0.0317
     88 H         7.302116   0.70623   -7.361294 H        1 UNL1     0.0429
     89 H         6.942173   -0.756947   -6.441626 H        1 UNL1     0.0429
     90 H         4.40111   0.019454   -7.283406 H        1 UNL1     0.0308
     91 H         6.350991   0.786937   -9.533683 H        1 UNL1     0.0233
     92 H         4.584778   0.622552   -9.703868 H        1 UNL1     0.0233
     93 H         5.260597   1.895372   -8.709986 H        1 UNL1     0.0233
     94 H         4.708932   -1.722574   -9.08044 H        1 UNL1     0.0233
     95 H         6.404825   -1.82267   -8.582185 H        1 UNL1     0.0233
     96 H         5.114413   -2.234566   -7.429288 H        1 UNL1     0.0233
     97 H         4.077273   10.538494   -0.385322 H        1 UNL1     0.0280
     98 H         5.685113   11.156354   -0.650436 H        1 UNL1     0.0280
     99 H         4.517608   11.111079   -2.004915 H        1 UNL1     0.0280
     100 H         6.643412   10.667893   -3.28948 H        1 UNL1     0.2922
     101 H         4.681636   0.984612   2.433488 H        1 UNL1     0.0236
     102 H         5.987684   2.232939   2.47799 H        1 UNL1     0.0236
     103 H         6.305633   0.610364   1.947278 H        1 UNL1     0.0236
     104 H         4.327215   -0.495582   1.31489 H        1 UNL1     0.2098
     105 H         0.707135   1.258222   -0.963133 H        1 UNL1     0.0234
     106 H         1.299269   -0.426885   -0.992962 H        1 UNL1     0.0234
     107 H         0.0   -0.0   0.0 H        1 UNL1     0.0234
     108 H         1.175072   3.316103   1.65838 H        1 UNL1     0.2098
     109 H         1.066939   3.028122   -0.933892 H        1 UNL1     0.0234
     110 H         -0.180196   2.276215   -1.978923 H        1 UNL1     0.0234
     111 H         0.063499   3.987633   -2.001319 H        1 UNL1     0.0234
     112 H         -3.599163   -1.48987   1.474207 H        1 UNL1     0.0342
     113 H         -3.236799   0.159209   2.096678 H        1 UNL1     0.0342
     114 H         -4.426179   -0.069084   0.811677 H        1 UNL1     0.0342
     115 H         -2.68509   2.031786   3.23699 H        1 UNL1     0.0234
     116 H         -1.184119   2.036356   4.168575 H        1 UNL1     0.0234
     117 H         -1.661328   3.384822   3.116168 H        1 UNL1     0.0234
     118 H         0.902794   7.661554   -0.992562 H        1 UNL1     0.0309
     119 H         2.179944   7.735717   -2.246137 H        1 UNL1     0.0309
     120 H         1.42988   6.2231   -1.786187 H        1 UNL1     0.0309
     121 H         -0.352556   6.353411   2.625844 H        1 UNL1     0.0524
     122 H         -2.090843   6.122522   2.398022 H        1 UNL1     0.0524
     123 H         -1.292926   5.442466   3.838367 H        1 UNL1     0.0524
@<TRIPOS>BOND
     1     1     2    1
     2     1    42    1
     3     2     3    2
     4     3     4    1
     5     4     5    2
     6     5     7    1
     7     6    75    1
     8     6    76    1
     9     6    77    1
    10     7     9   am
    11     9    10    1
    12    10    11    2
    13    10    43    1
    14    11    14    1
    15    11    15    1
    16    12    13   ar
    17    12    27   ar
    18    12    43    1
    19    13    14    1
    20    13    30   ar
    21    14    17    2
    22    15    16    1
    23    16    17    1
    24    16    18    1
    25    16    22    1
    26    18    19    1
    27    19    20    1
    28    20    21    1
    29    21    22    1
    30    23    24    1
    31    23    88    1
    32    23    89    1
    33    24    25    1
    34    24    26    1
    35    24    90    1
    36    25    91    1
    37    25    92    1
    38    25    93    1
    39    26    94    1
    40    26    95    1
    41    26    96    1
    42    27    28   ar
    43    28    29   ar
    44    29    30   ar
    45    29    31    1
    46    30    33    1
    47    31    32    1
    48    32    33    1
    49    32    35    1
    50    34    97    1
    51    34    98    1
    52    34    99    1
    53    35    61    1
    54    36    37    1
    55    36    60    1
    56    37    38    1
    57    38    39    1
    58    39    40    1
    59    40    41    1
    60    41    42    1
    61    45   100    1
    62    47   101    1
    63    47   102    1
    64    47   103    1
    65    48   104    1
    66    49   105    1
    67    49   106    1
    68    49   107    1
    69    50   108    1
    70    51    59    1
    71    52   109    1
    72    52   110    1
    73    52   111    1
    74    53    54    1
    75    54    55    2
    76    54    56    1
    77    56   112    1
    78    56   113    1
    79    56   114    1
    80    57   115    1
    81    57   116    1
    82    57   117    1
    83    58   118    1
    84    58   119    1
    85    58   120    1
    86    59   121    1
    87    59   122    1
    88    59   123    1
    89    60    61    2
    90     1    47    1
    91     1    62    1
    92     2    63    1
    93     3    64    1
    94     4    65    1
    95     5     6    1
    96     7     8    2
    97     9    78    1
    98    15    79    1
    99    18    80    1
   100    18    81    1
   101    19    82    1
   102    19    83    1
   103    20    23    1
   104    21    84    1
   105    21    85    1
   106    22    86    1
   107    22    87    1
   108    27    45    1
   109    28    34    1
   110    32    58    1
   111    33    46    2
   112    36    51    1
   113    36    66    1
   114    37    52    1
   115    37    67    1
   116    38    53    1
   117    38    68    1
   118    42    48    1
   119    42    72    1
   120    43    44    2
   121    60    73    1
   122    61    74    1
   123    39    69    1
   124    39    57    1
   125    40    70    1
   126    40    50    1
   127    41    71    1
   128    41    49    1
