@<TRIPOS>MOLECULE
*****
 123 128 0 0 0
SMALL
GASTEIGER

@<TRIPOS>ATOM
     1 C         -3.595395   -3.842083   0.029144 C.3        1 UNL1     0.0009
     2 C         -4.355359   -5.21099   -0.963622 C.2        1 UNL1     -0.0787
     3 C         -5.336029   -5.671015   -1.9242 C.2        1 UNL1     -0.0649
     4 C         -5.480123   -7.213695   -2.606647 C.2        1 UNL1     -0.0542
     5 C         -6.014241   -7.960798   -3.685365 C.2        1 UNL1     0.0115
     6 C         -6.975516   -7.896813   -4.904044 C.3        1 UNL1     -0.0348
     7 C         -5.420282   -9.421068   -3.988372 C.2        1 UNL1     0.2441
     8 O         -5.99239   -10.452581   -3.664031 O.2        1 UNL1     -0.2702
     9 N         -4.332337   -9.441343   -4.878382 N.am        1 UNL1     -0.2772
     10 C         -3.149277   -9.280784   -4.194341 C.2        1 UNL1     0.1049
     11 C         -2.806978   -8.037945   -3.90728 C.2        1 UNL1     0.0801
     12 C         -1.867887   -10.130275   -2.221085 C.ar        1 UNL1     0.0753
     13 C         -1.701961   -8.761108   -1.838389 C.ar        1 UNL1     0.0305
     14 C         -2.053822   -7.666543   -2.74015 C.2        1 UNL1     0.0924
     15 N         -3.31628   -6.876766   -4.353153 N.pl3        1 UNL1     -0.3170
     16 C         -2.476429   -5.813714   -3.868565 C.3        1 UNL1     0.1275
     17 N         -1.877671   -6.356385   -2.59392 N.2        1 UNL1     -0.2557
     18 C         -1.318885   -5.668053   -4.851711 C.3        1 UNL1     0.0016
     19 C         -1.888129   -5.434283   -6.241999 C.3        1 UNL1     0.0026
     20 N         -2.707739   -4.230718   -6.215583 N.3        1 UNL1     -0.3018
     21 C         -3.812159   -4.251598   -5.254235 C.3        1 UNL1     0.0026
     22 C         -3.217165   -4.482985   -3.86415 C.3        1 UNL1     0.0016
     23 C         -3.05081   -3.75288   -7.540202 C.3        1 UNL1     0.0012
     24 C         -1.782289   -3.380534   -8.323764 C.3        1 UNL1     -0.0339
     25 C         -1.102123   -2.134369   -7.733421 C.3        1 UNL1     -0.0615
     26 C         -0.83331   -4.565399   -8.371893 C.3        1 UNL1     -0.0615
     27 C         -1.418979   -11.166928   -1.406253 C.ar        1 UNL1     0.1347
     28 C         -0.756604   -10.95825   -0.20969 C.ar        1 UNL1     0.0342
     29 C         -0.648102   -9.603588   0.170155 C.ar        1 UNL1     0.1435
     30 C         -1.125198   -8.556016   -0.618636 C.ar        1 UNL1     0.0774
     31 O         0.066677   -9.230689   1.254149 O.3        1 UNL1     -0.4436
     32 C         0.339158   -7.83654   1.046842 C.3        1 UNL1     0.3143
     33 C         -0.742214   -7.358185   0.099201 C.2        1 UNL1     0.2504
     34 C         -0.028778   -12.003371   0.589115 C.3        1 UNL1     -0.0327
     35 O         0.12335   -7.169875   2.296736 O.2        1 UNL1     -0.4528
     36 C         2.489367   -4.201759   2.315158 C.3        1 UNL1     0.0854
     37 C         2.60488   -3.013297   1.284751 C.3        1 UNL1     0.0236
     38 C         2.483202   -1.548505   1.926096 C.3        1 UNL1     0.1131
     39 C         1.269293   -1.208086   2.881507 C.3        1 UNL1     0.0200
     40 C         -0.27635   -1.699385   2.491572 C.3        1 UNL1     0.0661
     41 C         -1.044875   -1.468988   0.996949 C.3        1 UNL1     0.0091
     42 C         -2.281214   -2.504404   0.12243 C.3        1 UNL1     0.0661
     43 C         -2.453562   -10.408117   -3.55602 C.2        1 UNL1     0.2131
     44 O         -2.295274   -11.456082   -4.155563 O.2        1 UNL1     -0.2851
     45 O         -1.660395   -12.471903   -1.83075 O.3        1 UNL1     -0.5056
     46 O         -1.200187   -6.243844   -0.020622 O.2        1 UNL1     -0.2836
     47 C         -4.521485   -3.456954   1.214055 C.3        1 UNL1     -0.0566
     48 O         -3.180997   -1.367653   -0.189509 O.3        1 UNL1     -0.3909
     49 C         -0.009149   -1.059642   -0.026378 C.3        1 UNL1     -0.0577
     50 O         -0.519798   -3.009356   2.9632 O.3        1 UNL1     -0.3910
     51 O         2.122917   -3.844741   3.628811 O.3        1 UNL1     -0.3753
     52 C         1.960108   -3.373437   -0.093479 C.3        1 UNL1     -0.0564
     53 O         2.939658   -0.45161   1.009148 O.3        1 UNL1     -0.4608
     54 C         3.215526   0.836668   1.386197 C.2        1 UNL1     0.3042
     55 O         3.907227   1.658581   0.786323 O.2        1 UNL1     -0.2512
     56 C         2.524236   1.253633   2.653072 C.3        1 UNL1     0.0332
     57 C         1.763781   -1.427895   4.386612 C.3        1 UNL1     -0.0567
     58 C         1.704618   -7.760361   0.324867 C.3        1 UNL1     0.0210
     59 C         1.046616   -4.603549   4.178039 C.3        1 UNL1     0.0372
     60 C         1.581905   -5.306602   1.901643 C.2        1 UNL1     -0.0208
     61 C         0.654102   -5.968357   2.594468 C.2        1 UNL1     0.0882
     62 H         -2.865012   -4.559091   0.423037 H        1 UNL1     0.0365
     63 H         -3.794282   -6.069747   -0.589189 H        1 UNL1     0.0576
     64 H         -6.004502   -4.976053   -2.437307 H        1 UNL1     0.0615
     65 H         -4.840039   -7.837913   -1.97726 H        1 UNL1     0.0622
     66 H         3.498092   -4.636949   2.348782 H        1 UNL1     0.0645
     67 H         3.664077   -3.029655   0.974277 H        1 UNL1     0.0362
     68 H         3.371917   -1.557599   2.575422 H        1 UNL1     0.0741
     69 H         1.167378   -0.132926   2.94516 H        1 UNL1     0.0359
     70 H         -0.860243   -1.048218   3.169887 H        1 UNL1     0.0600
     71 H         -1.554188   -0.504114   1.188196 H        1 UNL1     0.0348
     72 H         -2.313552   -2.818257   1.175884 H        1 UNL1     0.0602
     73 H         1.850971   -5.633692   0.928059 H        1 UNL1     0.0628
     74 H         0.280959   -5.663695   3.572825 H        1 UNL1     0.1022
     75 H         -7.654442   -8.783367   -4.91478 H        1 UNL1     0.0279
     76 H         -7.676018   -7.065024   -4.926243 H        1 UNL1     0.0279
     77 H         -6.45259   -8.012561   -5.864696 H        1 UNL1     0.0279
     78 H         -4.41357   -8.668284   -5.53554 H        1 UNL1     0.1553
     79 H         -3.871234   -6.79496   -5.185179 H        1 UNL1     0.1484
     80 H         -0.682707   -4.833198   -4.53381 H        1 UNL1     0.0317
     81 H         -0.687122   -6.562765   -4.847661 H        1 UNL1     0.0317
     82 H         -2.467363   -6.299934   -6.595621 H        1 UNL1     0.0428
     83 H         -1.04591   -5.335023   -6.927466 H        1 UNL1     0.0428
     84 H         -4.362371   -3.307204   -5.197676 H        1 UNL1     0.0428
     85 H         -4.578009   -4.990615   -5.527445 H        1 UNL1     0.0428
     86 H         -4.032745   -4.359798   -3.175933 H        1 UNL1     0.0317
     87 H         -2.539763   -3.660208   -3.604803 H        1 UNL1     0.0317
     88 H         -3.565423   -4.563227   -8.072936 H        1 UNL1     0.0429
     89 H         -3.748284   -2.9068   -7.49066 H        1 UNL1     0.0429
     90 H         -2.052265   -3.170509   -9.3655 H        1 UNL1     0.0308
     91 H         -1.231176   -2.087421   -6.647952 H        1 UNL1     0.0233
     92 H         -0.035161   -2.128836   -7.968304 H        1 UNL1     0.0233
     93 H         -1.510214   -1.202371   -8.142906 H        1 UNL1     0.0233
     94 H         -0.368334   -4.716956   -7.391758 H        1 UNL1     0.0233
     95 H         -1.383887   -5.4749   -8.628084 H        1 UNL1     0.0233
     96 H         -0.041191   -4.412499   -9.110228 H        1 UNL1     0.0233
     97 H         0.954636   -12.216635   0.180892 H        1 UNL1     0.0280
     98 H         0.138663   -11.688459   1.627407 H        1 UNL1     0.0280
     99 H         -0.612172   -12.938647   0.591546 H        1 UNL1     0.0280
     100 H         -0.887965   -12.958564   -2.059083 H        1 UNL1     0.2922
     101 H         -3.918923   -3.118543   2.056702 H        1 UNL1     0.0236
     102 H         -5.2094   -4.253091   1.496761 H        1 UNL1     0.0236
     103 H         -5.169764   -2.598566   0.970955 H        1 UNL1     0.0236
     104 H         -2.811623   -0.903628   -0.966178 H        1 UNL1     0.2098
     105 H         0.998041   -1.406564   0.190475 H        1 UNL1     0.0234
     106 H         -0.273548   -1.288709   -1.058632 H        1 UNL1     0.0234
     107 H         0.0   0.0   0.0 H        1 UNL1     0.0234
     108 H         -1.043324   -3.470992   2.280133 H        1 UNL1     0.2098
     109 H         0.884611   -3.149231   -0.120853 H        1 UNL1     0.0234
     110 H         2.457078   -2.888972   -0.940862 H        1 UNL1     0.0234
     111 H         2.045777   -4.44613   -0.312424 H        1 UNL1     0.0234
     112 H         1.561936   1.717717   2.416532 H        1 UNL1     0.0342
     113 H         2.397308   0.421099   3.343448 H        1 UNL1     0.0342
     114 H         3.148199   2.007777   3.152174 H        1 UNL1     0.0342
     115 H         1.354838   -2.350928   4.820161 H        1 UNL1     0.0234
     116 H         2.849402   -1.466611   4.496051 H        1 UNL1     0.0234
     117 H         1.37718   -0.671864   5.091522 H        1 UNL1     0.0234
     118 H         1.601232   -7.863051   -0.76956 H        1 UNL1     0.0309
     119 H         2.257858   -6.84252   0.547792 H        1 UNL1     0.0309
     120 H         2.369459   -8.588234   0.594531 H        1 UNL1     0.0309
     121 H         1.424575   -5.122181   5.058678 H        1 UNL1     0.0524
     122 H         0.207969   -3.96549   4.502985 H        1 UNL1     0.0524
     123 H         0.681749   -5.32088   3.448381 H        1 UNL1     0.0524
@<TRIPOS>BOND
     1     1     2    1
     2     1    42    1
     3     2     3    2
     4     3     4    1
     5     4     5    2
     6     5     7    1
     7     6    75    1
     8     6    76    1
     9     6    77    1
    10     7     9   am
    11     9    10    1
    12    10    11    2
    13    10    43    1
    14    11    14    1
    15    11    15    1
    16    12    13   ar
    17    12    27   ar
    18    12    43    1
    19    13    14    1
    20    13    30   ar
    21    14    17    2
    22    15    16    1
    23    16    17    1
    24    16    18    1
    25    16    22    1
    26    18    19    1
    27    19    20    1
    28    20    21    1
    29    21    22    1
    30    23    24    1
    31    23    88    1
    32    23    89    1
    33    24    25    1
    34    24    26    1
    35    24    90    1
    36    25    91    1
    37    25    92    1
    38    25    93    1
    39    26    94    1
    40    26    95    1
    41    26    96    1
    42    27    28   ar
    43    28    29   ar
    44    29    30   ar
    45    29    31    1
    46    30    33    1
    47    31    32    1
    48    32    33    1
    49    32    35    1
    50    34    97    1
    51    34    98    1
    52    34    99    1
    53    35    61    1
    54    36    37    1
    55    36    60    1
    56    37    38    1
    57    38    39    1
    58    39    40    1
    59    40    41    1
    60    41    42    1
    61    45   100    1
    62    47   101    1
    63    47   102    1
    64    47   103    1
    65    48   104    1
    66    49   105    1
    67    49   106    1
    68    49   107    1
    69    50   108    1
    70    51    59    1
    71    52   109    1
    72    52   110    1
    73    52   111    1
    74    53    54    1
    75    54    55    2
    76    54    56    1
    77    56   112    1
    78    56   113    1
    79    56   114    1
    80    57   115    1
    81    57   116    1
    82    57   117    1
    83    58   118    1
    84    58   119    1
    85    58   120    1
    86    59   121    1
    87    59   122    1
    88    59   123    1
    89    60    61    2
    90     1    47    1
    91     1    62    1
    92     2    63    1
    93     3    64    1
    94     4    65    1
    95     5     6    1
    96     7     8    2
    97     9    78    1
    98    15    79    1
    99    18    80    1
   100    18    81    1
   101    19    82    1
   102    19    83    1
   103    20    23    1
   104    21    84    1
   105    21    85    1
   106    22    86    1
   107    22    87    1
   108    27    45    1
   109    28    34    1
   110    32    58    1
   111    33    46    2
   112    36    51    1
   113    36    66    1
   114    37    52    1
   115    37    67    1
   116    38    53    1
   117    38    68    1
   118    42    48    1
   119    42    72    1
   120    43    44    2
   121    60    73    1
   122    61    74    1
   123    39    69    1
   124    39    57    1
   125    40    70    1
   126    40    50    1
   127    41    71    1
   128    41    49    1
