@<TRIPOS>MOLECULE
*****
 123 128 0 0 0
SMALL
GASTEIGER

@<TRIPOS>ATOM
     1 C         5.167033   1.749426   0.490458 C.3        1 UNL1     0.0009
     2 C         6.603298   2.556216   -0.359996 C.2        1 UNL1     -0.0787
     3 C         7.88497   2.45859   -1.026203 C.2        1 UNL1     -0.0649
     4 C         8.761953   3.694251   -1.781451 C.2        1 UNL1     -0.0542
     5 C         9.781614   3.987551   -2.72025 C.2        1 UNL1     0.0115
     6 C         10.909629   3.362743   -3.586576 C.3        1 UNL1     -0.0348
     7 C         9.876495   5.471134   -3.32603 C.2        1 UNL1     0.2441
     8 O         10.700365   6.292729   -2.948212 O.2        1 UNL1     -0.2702
     9 N         9.125846   5.67857   -4.496349 N.am        1 UNL1     -0.2772
     10 C         7.84317   6.064871   -4.181967 C.2        1 UNL1     0.1049
     11 C         6.997649   5.093164   -3.890246 C.2        1 UNL1     0.0801
     12 C         6.544976   7.670579   -2.769972 C.ar        1 UNL1     0.0753
     13 C         5.786261   6.542305   -2.322805 C.ar        1 UNL1     0.0305
     14 C         5.9032   5.236954   -2.968897 C.2        1 UNL1     0.0924
     15 N         7.120443   3.764289   -4.050055 N.pl3        1 UNL1     -0.3170
     16 C         5.850791   3.164741   -3.735759 C.3        1 UNL1     0.1275
     17 N         5.214557   4.119366   -2.755137 N.2        1 UNL1     -0.2557
     18 C         4.997509   3.22431   -4.999113 C.3        1 UNL1     0.0016
     19 C         5.752129   2.540924   -6.128326 C.3        1 UNL1     0.0026
     20 N         6.022636   1.162671   -5.743261 N.3        1 UNL1     -0.3018
     21 C         6.786436   1.001776   -4.504273 C.3        1 UNL1     0.0026
     22 C         6.007949   1.69159   -3.382664 C.3        1 UNL1     0.0016
     23 C         6.466911   0.343776   -6.85352 C.3        1 UNL1     0.0012
     24 C         5.311179   0.094604   -7.835331 C.3        1 UNL1     -0.0339
     25 C         5.346323   1.087357   -9.0089 C.3        1 UNL1     -0.0615
     26 C         5.340364   -1.344642   -8.319582 C.3        1 UNL1     -0.0615
     27 C         6.34028   8.937963   -2.229642 C.ar        1 UNL1     0.1347
     28 C         5.381498   9.206858   -1.269182 C.ar        1 UNL1     0.0342
     29 C         4.680285   8.072053   -0.809091 C.ar        1 UNL1     0.1435
     30 C         4.899777   6.790321   -1.315259 C.ar        1 UNL1     0.0774
     31 O         3.639562   8.185008   0.044808 O.3        1 UNL1     -0.4436
     32 C         2.918048   6.952137   -0.097734 C.3        1 UNL1     0.3143
     33 C         3.931334   5.959475   -0.630731 C.2        1 UNL1     0.2504
     34 C         4.934575   10.572661   -0.827663 C.3        1 UNL1     -0.0327
     35 O         2.557933   6.514709   1.218406 O.2        1 UNL1     -0.4528
     36 C         -0.684918   4.582169   0.821801 C.3        1 UNL1     0.0854
     37 C         -0.990315   3.321986   -0.076082 C.3        1 UNL1     0.0236
     38 C         -1.590386   2.060442   0.711425 C.3        1 UNL1     0.1131
     39 C         -0.864091   1.528977   2.012314 C.3        1 UNL1     0.0200
     40 C         0.79714   1.383695   2.052839 C.3        1 UNL1     0.0661
     41 C         1.756239   0.615616   0.883312 C.3        1 UNL1     0.0091
     42 C         3.463571   0.978748   0.318904 C.3        1 UNL1     0.0661
     43 C         7.494668   7.463601   -3.891357 C.2        1 UNL1     0.2131
     44 O         7.894151   8.362108   -4.609575 O.2        1 UNL1     -0.2851
     45 O         7.152213   9.973438   -2.687893 O.3        1 UNL1     -0.5056
     46 O         3.947573   4.755878   -0.50056 O.2        1 UNL1     -0.2836
     47 C         5.563964   1.319299   1.928309 C.3        1 UNL1     -0.0566
     48 O         3.912402   -0.432322   0.399831 O.3        1 UNL1     -0.3909
     49 C         0.921663   0.383502   -0.356486 C.3        1 UNL1     -0.0577
     50 O         1.397267   2.601463   2.446044 O.3        1 UNL1     -0.3910
     51 O         -0.808493   4.391781   2.213172 O.3        1 UNL1     -0.3753
     52 C         0.053769   3.162264   -1.229046 C.3        1 UNL1     -0.0564
     53 O         -2.193124   1.021803   -0.18872 O.3        1 UNL1     -0.4608
     54 C         -2.427195   -0.285157   0.150391 C.2        1 UNL1     0.3042
     55 O         -1.85808   -1.283973   -0.288143 O.2        1 UNL1     -0.2512
     56 C         -3.466814   -0.451508   1.221947 C.3        1 UNL1     0.0332
     57 C         -1.584795   2.197223   3.274141 C.3        1 UNL1     -0.0567
     58 C         1.842435   7.197583   -1.181405 C.3        1 UNL1     0.0210
     59 C         -1.152554   5.563997   2.950327 C.3        1 UNL1     0.0372
     60 C         0.643892   5.211591   0.591034 C.2        1 UNL1     -0.0208
     61 C         1.557056   5.646548   1.460337 C.2        1 UNL1     0.0882
     62 H         4.690978   2.733476   0.578377 H        1 UNL1     0.0365
     63 H         6.33691   3.609919   -0.254079 H        1 UNL1     0.0576
     64 H         8.342709   1.491926   -1.247886 H        1 UNL1     0.0615
     65 H         8.274838   4.609395   -1.434012 H        1 UNL1     0.0622
     66 H         -1.429802   5.328725   0.512206 H        1 UNL1     0.0645
     67 H         -1.856129   3.631506   -0.686919 H        1 UNL1     0.0362
     68 H         -2.537406   2.496987   1.063709 H        1 UNL1     0.0741
     69 H         -1.195376   0.517727   2.207335 H        1 UNL1     0.0359
     70 H         0.909335   0.72295   2.933685 H        1 UNL1     0.0600
     71 H         1.800142   -0.405751   1.309738 H        1 UNL1     0.0348
     72 H         3.357952   1.466455   1.298854 H        1 UNL1     0.0602
     73 H         0.761389   5.409368   -0.445464 H        1 UNL1     0.0628
     74 H         1.539923   5.435358   2.530076 H        1 UNL1     0.1022
     75 H         10.954348   2.257397   -3.434115 H        1 UNL1     0.0279
     76 H         10.795603   3.446041   -4.66506 H        1 UNL1     0.0279
     77 H         11.914769   3.667455   -3.260161 H        1 UNL1     0.0279
     78 H         9.063805   4.808868   -5.021559 H        1 UNL1     0.1553
     79 H         7.785566   3.33671   -4.66789 H        1 UNL1     0.1484
     80 H         4.036378   2.733122   -4.804878 H        1 UNL1     0.0317
     81 H         4.770633   4.261158   -5.26953 H        1 UNL1     0.0317
     82 H         6.682616   3.072501   -6.376382 H        1 UNL1     0.0428
     83 H         5.126652   2.596397   -7.019814 H        1 UNL1     0.0428
     84 H         6.907039   -0.041307   -4.195655 H        1 UNL1     0.0428
     85 H         7.816431   1.37003   -4.608277 H        1 UNL1     0.0428
     86 H         6.524735   1.440871   -2.474886 H        1 UNL1     0.0317
     87 H         5.028627   1.21373   -3.25746 H        1 UNL1     0.0317
     88 H         7.262697   0.885962   -7.380828 H        1 UNL1     0.0429
     89 H         6.899787   -0.602095   -6.503206 H        1 UNL1     0.0429
     90 H         4.358314   0.213263   -7.306009 H        1 UNL1     0.0308
     91 H         6.296938   1.032616   -9.547821 H        1 UNL1     0.0233
     92 H         4.527526   0.89151   -9.705193 H        1 UNL1     0.0233
     93 H         5.226304   2.126817   -8.680337 H        1 UNL1     0.0233
     94 H         4.64445   -1.476184   -9.155188 H        1 UNL1     0.0233
     95 H         6.343401   -1.599725   -8.672869 H        1 UNL1     0.0233
     96 H         5.059328   -2.039411   -7.523163 H        1 UNL1     0.0233
     97 H         4.141507   10.522392   -0.087564 H        1 UNL1     0.0280
     98 H         5.747398   11.142614   -0.358909 H        1 UNL1     0.0280
     99 H         4.560494   11.137552   -1.697178 H        1 UNL1     0.0280
     100 H         6.684943   10.724126   -3.009992 H        1 UNL1     0.2922
     101 H         4.701403   0.885271   2.433546 H        1 UNL1     0.0236
     102 H         6.014815   2.12444   2.507502 H        1 UNL1     0.0236
     103 H         6.320348   0.516757   1.926554 H        1 UNL1     0.0236
     104 H         4.332268   -0.558661   1.273171 H        1 UNL1     0.2098
     105 H         0.708661   1.282573   -0.929298 H        1 UNL1     0.0234
     106 H         1.290951   -0.404142   -1.013122 H        1 UNL1     0.0234
     107 H         0.0   -0.0   0.0 H        1 UNL1     0.0234
     108 H         1.198959   3.259831   1.752507 H        1 UNL1     0.2098
     109 H         1.078758   3.04878   -0.849271 H        1 UNL1     0.0234
     110 H         -0.178776   2.335451   -1.908787 H        1 UNL1     0.0234
     111 H         0.074579   4.045395   -1.881422 H        1 UNL1     0.0234
     112 H         -3.599058   -1.513397   1.450529 H        1 UNL1     0.0342
     113 H         -3.223373   0.114115   2.120084 H        1 UNL1     0.0342
     114 H         -4.421616   -0.068638   0.836034 H        1 UNL1     0.0342
     115 H         -2.654363   1.948748   3.312508 H        1 UNL1     0.0234
     116 H         -1.147947   1.917077   4.23473 H        1 UNL1     0.0234
     117 H         -1.623598   3.299096   3.226054 H        1 UNL1     0.0234
     118 H         0.941425   7.684138   -0.768546 H        1 UNL1     0.0309
     119 H         2.211402   7.786034   -2.02745 H        1 UNL1     0.0309
     120 H         1.453871   6.265761   -1.606649 H        1 UNL1     0.0309
     121 H         -0.348494   6.286756   2.814443 H        1 UNL1     0.0524
     122 H         -2.082924   6.029863   2.585062 H        1 UNL1     0.0524
     123 H         -1.267822   5.325179   4.003784 H        1 UNL1     0.0524
@<TRIPOS>BOND
     1     1     2    1
     2     1    42    1
     3     2     3    2
     4     3     4    1
     5     4     5    2
     6     5     7    1
     7     6    75    1
     8     6    76    1
     9     6    77    1
    10     7     9   am
    11     9    10    1
    12    10    11    2
    13    10    43    1
    14    11    14    1
    15    11    15    1
    16    12    13   ar
    17    12    27   ar
    18    12    43    1
    19    13    14    1
    20    13    30   ar
    21    14    17    2
    22    15    16    1
    23    16    17    1
    24    16    18    1
    25    16    22    1
    26    18    19    1
    27    19    20    1
    28    20    21    1
    29    21    22    1
    30    23    24    1
    31    23    88    1
    32    23    89    1
    33    24    25    1
    34    24    26    1
    35    24    90    1
    36    25    91    1
    37    25    92    1
    38    25    93    1
    39    26    94    1
    40    26    95    1
    41    26    96    1
    42    27    28   ar
    43    28    29   ar
    44    29    30   ar
    45    29    31    1
    46    30    33    1
    47    31    32    1
    48    32    33    1
    49    32    35    1
    50    34    97    1
    51    34    98    1
    52    34    99    1
    53    35    61    1
    54    36    37    1
    55    36    60    1
    56    37    38    1
    57    38    39    1
    58    39    40    1
    59    40    41    1
    60    41    42    1
    61    45   100    1
    62    47   101    1
    63    47   102    1
    64    47   103    1
    65    48   104    1
    66    49   105    1
    67    49   106    1
    68    49   107    1
    69    50   108    1
    70    51    59    1
    71    52   109    1
    72    52   110    1
    73    52   111    1
    74    53    54    1
    75    54    55    2
    76    54    56    1
    77    56   112    1
    78    56   113    1
    79    56   114    1
    80    57   115    1
    81    57   116    1
    82    57   117    1
    83    58   118    1
    84    58   119    1
    85    58   120    1
    86    59   121    1
    87    59   122    1
    88    59   123    1
    89    60    61    2
    90     1    47    1
    91     1    62    1
    92     2    63    1
    93     3    64    1
    94     4    65    1
    95     5     6    1
    96     7     8    2
    97     9    78    1
    98    15    79    1
    99    18    80    1
   100    18    81    1
   101    19    82    1
   102    19    83    1
   103    20    23    1
   104    21    84    1
   105    21    85    1
   106    22    86    1
   107    22    87    1
   108    27    45    1
   109    28    34    1
   110    32    58    1
   111    33    46    2
   112    36    51    1
   113    36    66    1
   114    37    52    1
   115    37    67    1
   116    38    53    1
   117    38    68    1
   118    42    48    1
   119    42    72    1
   120    43    44    2
   121    60    73    1
   122    61    74    1
   123    39    69    1
   124    39    57    1
   125    40    70    1
   126    40    50    1
   127    41    71    1
   128    41    49    1
