@<TRIPOS>MOLECULE
*****
 123 128 0 0 0
SMALL
GASTEIGER

@<TRIPOS>ATOM
     1 C         5.166121   1.682647   0.701179 C.3        1 UNL1     0.0009
     2 C         6.635641   2.493731   -0.086024 C.2        1 UNL1     -0.0787
     3 C         7.941454   2.399062   -0.704035 C.2        1 UNL1     -0.0649
     4 C         8.849538   3.63964   -1.413052 C.2        1 UNL1     -0.0542
     5 C         9.904849   3.939319   -2.309484 C.2        1 UNL1     0.0115
     6 C         11.06342   3.319914   -3.138563 C.3        1 UNL1     -0.0348
     7 C         10.026331   5.42855   -2.896361 C.2        1 UNL1     0.2441
     8 O         10.837273   6.244021   -2.479342 O.2        1 UNL1     -0.2702
     9 N         9.321199   5.649691   -4.092202 N.am        1 UNL1     -0.2772
     10 C         8.02846   6.036504   -3.822897 C.2        1 UNL1     0.1049
     11 C         7.170075   5.064364   -3.573216 C.2        1 UNL1     0.0801
     12 C         6.681519   7.63184   -2.445223 C.ar        1 UNL1     0.0753
     13 C         5.903586   6.501356   -2.038486 C.ar        1 UNL1     0.0305
     14 C         6.041771   5.202137   -2.692692 C.2        1 UNL1     0.0924
     15 N         7.295578   3.736791   -3.741526 N.pl3        1 UNL1     -0.3170
     16 C         6.01343   3.137772   -3.48167 C.3        1 UNL1     0.1275
     17 N         5.342753   4.084448   -2.516414 N.2        1 UNL1     -0.2557
     18 C         5.20891   3.212267   -4.775849 C.3        1 UNL1     0.0016
     19 C         6.0042   2.537949   -5.882375 C.3        1 UNL1     0.0026
     20 N         6.256486   1.15519   -5.501117 N.3        1 UNL1     -0.3018
     21 C         6.972265   0.979869   -4.235696 C.3        1 UNL1     0.0026
     22 C         6.15343   1.660758   -3.137609 C.3        1 UNL1     0.0016
     23 C         6.740602   0.346064   -6.601841 C.3        1 UNL1     0.0012
     24 C         5.622395   0.109906   -7.629264 C.3        1 UNL1     -0.0339
     25 C         6.034167   0.593055   -9.029645 C.3        1 UNL1     -0.0615
     26 C         5.224443   -1.355813   -7.638217 C.3        1 UNL1     -0.0615
     27 C         6.459565   8.89439   -1.900409 C.ar        1 UNL1     0.1347
     28 C         5.465652   9.156489   -0.974402 C.ar        1 UNL1     0.0342
     29 C         4.744672   8.019184   -0.552633 C.ar        1 UNL1     0.1435
     30 C         4.980078   6.741905   -1.062892 C.ar        1 UNL1     0.0774
     31 O         3.672541   8.126638   0.262226 O.3        1 UNL1     -0.4436
     32 C         2.953928   6.897293   0.080075 C.3        1 UNL1     0.3143
     33 C         3.984284   5.90708   -0.423966 C.2        1 UNL1     0.2504
     34 C         5.005643   10.519121   -0.536534 C.3        1 UNL1     -0.0327
     35 O         2.542994   6.447885   1.377156 O.2        1 UNL1     -0.4528
     36 C         -0.687198   4.528587   0.838419 C.3        1 UNL1     0.0854
     37 C         -0.961366   3.278225   -0.082965 C.3        1 UNL1     0.0236
     38 C         -1.594028   2.010659   0.66854 C.3        1 UNL1     0.1131
     39 C         -0.918992   1.464283   1.990685 C.3        1 UNL1     0.0200
     40 C         0.739137   1.313887   2.092796 C.3        1 UNL1     0.0661
     41 C         1.740081   0.554699   0.952903 C.3        1 UNL1     0.0091
     42 C         3.468512   0.918547   0.45738 C.3        1 UNL1     0.0661
     43 C         7.672616   7.433274   -3.531758 C.2        1 UNL1     0.2131
     44 O         8.101309   8.337706   -4.225272 O.2        1 UNL1     -0.2851
     45 O         7.29087   9.93204   -2.317129 O.3        1 UNL1     -0.5056
     46 O         3.992601   4.702212   -0.305313 O.2        1 UNL1     -0.2836
     47 C         5.507078   1.237183   2.148691 C.3        1 UNL1     -0.0566
     48 O         3.910468   -0.494524   0.541176 O.3        1 UNL1     -0.3909
     49 C         0.952641   0.33724   -0.319945 C.3        1 UNL1     -0.0577
     50 O         1.326891   2.525994   2.520657 O.3        1 UNL1     -0.3910
     51 O         -0.864013   4.324789   2.222122 O.3        1 UNL1     -0.3753
     52 C         0.12537   3.126957   -1.196999 C.3        1 UNL1     -0.0564
     53 O         -2.16469   0.982697   -0.26418 O.3        1 UNL1     -0.4608
     54 C         -2.383096   -0.334987   0.042313 C.2        1 UNL1     0.3042
     55 O         -1.698448   -1.302202   -0.288734 O.2        1 UNL1     -0.2512
     56 C         -3.57476   -0.556489   0.929775 C.3        1 UNL1     0.0332
     57 C         -1.685466   2.122053   3.230859 C.3        1 UNL1     -0.0567
     58 C         1.92087   7.156508   -1.041142 C.3        1 UNL1     0.0210
     59 C         -1.202165   5.496871   2.962219 C.3        1 UNL1     0.0372
     60 C         0.650966   5.156484   0.664571 C.2        1 UNL1     -0.0208
     61 C         1.531514   5.58022   1.572221 C.2        1 UNL1     0.0882
     62 H         4.689495   2.667126   0.780795 H        1 UNL1     0.0365
     63 H         6.368019   3.547086   0.020232 H        1 UNL1     0.0576
     64 H         8.404902   1.433343   -0.917835 H        1 UNL1     0.0615
     65 H         8.351831   4.552681   -1.075224 H        1 UNL1     0.0622
     66 H         -1.417941   5.280284   0.508247 H        1 UNL1     0.0645
     67 H         -1.802583   3.596235   -0.723108 H        1 UNL1     0.0362
     68 H         -2.55267   2.446384   0.988963 H        1 UNL1     0.0741
     69 H         -1.259937   0.452098   2.162868 H        1 UNL1     0.0359
     70 H         0.816159   0.644141   2.970616 H        1 UNL1     0.0600
     71 H         1.765236   -0.470959   1.370455 H        1 UNL1     0.0348
     72 H         3.326942   1.396829   1.437441 H        1 UNL1     0.0602
     73 H         0.808244   5.364175   -0.364689 H        1 UNL1     0.0628
     74 H         1.473231   5.358501   2.638374 H        1 UNL1     0.1022
     75 H         11.050713   2.206135   -3.058756 H        1 UNL1     0.0279
     76 H         11.028817   3.478114   -4.21413 H        1 UNL1     0.0279
     77 H         12.055182   3.555559   -2.725548 H        1 UNL1     0.0279
     78 H         9.277014   4.785409   -4.628058 H        1 UNL1     0.1553
     79 H         7.982639   3.313461   -4.337909 H        1 UNL1     0.1484
     80 H         4.239887   2.721913   -4.623164 H        1 UNL1     0.0317
     81 H         4.995026   4.25238   -5.044305 H        1 UNL1     0.0317
     82 H         6.944745   3.069309   -6.089599 H        1 UNL1     0.0428
     83 H         5.413182   2.60402   -6.796368 H        1 UNL1     0.0428
     84 H         7.078486   -0.066555   -3.933165 H        1 UNL1     0.0428
     85 H         8.006372   1.346207   -4.296833 H        1 UNL1     0.0428
     86 H         6.634736   1.399599   -2.213419 H        1 UNL1     0.0317
     87 H         5.168885   1.184466   -3.054459 H        1 UNL1     0.0317
     88 H         7.55718   0.891179   -7.093109 H        1 UNL1     0.0429
     89 H         7.157526   -0.604454   -6.24482 H        1 UNL1     0.0429
     90 H         4.727054   0.66147   -7.318852 H        1 UNL1     0.0308
     91 H         7.043968   0.258079   -9.284976 H        1 UNL1     0.0233
     92 H         5.333868   0.229283   -9.785199 H        1 UNL1     0.0233
     93 H         6.031551   1.686722   -9.111617 H        1 UNL1     0.0233
     94 H         4.652675   -1.586424   -8.54361 H        1 UNL1     0.0233
     95 H         6.118403   -1.985721   -7.634472 H        1 UNL1     0.0233
     96 H         4.611195   -1.608124   -6.7686 H        1 UNL1     0.0233
     97 H         4.132799   10.467069   0.10741 H        1 UNL1     0.0280
     98 H         5.774008   11.049489   0.04103 H        1 UNL1     0.0280
     99 H         4.746677   11.123218   -1.421462 H        1 UNL1     0.0280
     100 H         6.838773   10.71456   -2.579602 H        1 UNL1     0.2922
     101 H         4.600675   0.904632   2.65416 H        1 UNL1     0.0236
     102 H         6.036651   2.000033   2.718424 H        1 UNL1     0.0236
     103 H         6.174872   0.359708   2.1655 H        1 UNL1     0.0236
     104 H         4.207187   -0.65689   1.458 H        1 UNL1     0.2098
     105 H         0.805129   1.23457   -0.915638 H        1 UNL1     0.0234
     106 H         1.316198   -0.476842   -0.946862 H        1 UNL1     0.0234
     107 H         0.0   -0.0   0.0 H        1 UNL1     0.0234
     108 H         1.211085   3.174819   1.799973 H        1 UNL1     0.2098
     109 H         1.1364   3.019198   -0.779965 H        1 UNL1     0.0234
     110 H         -0.076843   2.299872   -1.886046 H        1 UNL1     0.0234
     111 H         0.164604   4.011308   -1.846869 H        1 UNL1     0.0234
     112 H         -3.679967   -1.622665   1.152361 H        1 UNL1     0.0342
     113 H         -3.518098   0.030086   1.845505 H        1 UNL1     0.0342
     114 H         -4.473066   -0.23609   0.384288 H        1 UNL1     0.0342
     115 H         -2.772329   1.975901   3.163363 H        1 UNL1     0.0234
     116 H         -1.36308   1.7441   4.203109 H        1 UNL1     0.0234
     117 H         -1.619633   3.223432   3.254739 H        1 UNL1     0.0234
     118 H         0.894802   7.253473   -0.645175 H        1 UNL1     0.0309
     119 H         2.155894   8.037677   -1.64654 H        1 UNL1     0.0309
     120 H         1.84275   6.318705   -1.742634 H        1 UNL1     0.0309
     121 H         -0.868434   5.346441   3.988549 H        1 UNL1     0.0524
     122 H         -0.694125   6.396361   2.576408 H        1 UNL1     0.0524
     123 H         -2.275825   5.660363   2.937343 H        1 UNL1     0.0524
@<TRIPOS>BOND
     1     1     2    1
     2     1    42    1
     3     2     3    2
     4     3     4    1
     5     4     5    2
     6     5     7    1
     7     6    75    1
     8     6    76    1
     9     6    77    1
    10     7     9   am
    11     9    10    1
    12    10    11    2
    13    10    43    1
    14    11    14    1
    15    11    15    1
    16    12    13   ar
    17    12    27   ar
    18    12    43    1
    19    13    14    1
    20    13    30   ar
    21    14    17    2
    22    15    16    1
    23    16    17    1
    24    16    18    1
    25    16    22    1
    26    18    19    1
    27    19    20    1
    28    20    21    1
    29    21    22    1
    30    23    24    1
    31    23    88    1
    32    23    89    1
    33    24    25    1
    34    24    26    1
    35    24    90    1
    36    25    91    1
    37    25    92    1
    38    25    93    1
    39    26    94    1
    40    26    95    1
    41    26    96    1
    42    27    28   ar
    43    28    29   ar
    44    29    30   ar
    45    29    31    1
    46    30    33    1
    47    31    32    1
    48    32    33    1
    49    32    35    1
    50    34    97    1
    51    34    98    1
    52    34    99    1
    53    35    61    1
    54    36    37    1
    55    36    60    1
    56    37    38    1
    57    38    39    1
    58    39    40    1
    59    40    41    1
    60    41    42    1
    61    45   100    1
    62    47   101    1
    63    47   102    1
    64    47   103    1
    65    48   104    1
    66    49   105    1
    67    49   106    1
    68    49   107    1
    69    50   108    1
    70    51    59    1
    71    52   109    1
    72    52   110    1
    73    52   111    1
    74    53    54    1
    75    54    55    2
    76    54    56    1
    77    56   112    1
    78    56   113    1
    79    56   114    1
    80    57   115    1
    81    57   116    1
    82    57   117    1
    83    58   118    1
    84    58   119    1
    85    58   120    1
    86    59   121    1
    87    59   122    1
    88    59   123    1
    89    60    61    2
    90     1    47    1
    91     1    62    1
    92     2    63    1
    93     3    64    1
    94     4    65    1
    95     5     6    1
    96     7     8    2
    97     9    78    1
    98    15    79    1
    99    18    80    1
   100    18    81    1
   101    19    82    1
   102    19    83    1
   103    20    23    1
   104    21    84    1
   105    21    85    1
   106    22    86    1
   107    22    87    1
   108    27    45    1
   109    28    34    1
   110    32    58    1
   111    33    46    2
   112    36    51    1
   113    36    66    1
   114    37    52    1
   115    37    67    1
   116    38    53    1
   117    38    68    1
   118    42    48    1
   119    42    72    1
   120    43    44    2
   121    60    73    1
   122    61    74    1
   123    39    69    1
   124    39    57    1
   125    40    70    1
   126    40    50    1
   127    41    71    1
   128    41    49    1
