@<TRIPOS>MOLECULE
*****
 123 128 0 0 0
SMALL
GASTEIGER

@<TRIPOS>ATOM
     1 C         -3.929192   0.816674   1.043194 C.3        1 UNL1     0.0009
     2 C         -5.464919   0.218628   0.194122 C.2        1 UNL1     -0.0787
     3 C         -6.566323   0.447196   -0.717312 C.2        1 UNL1     -0.0649
     4 C         -7.73388   -0.662918   -1.237709 C.2        1 UNL1     -0.0542
     5 C         -8.696773   -0.953125   -2.235554 C.2        1 UNL1     0.0115
     6 C         -9.455868   -0.366917   -3.457625 C.3        1 UNL1     -0.0348
     7 C         -9.231443   -2.459423   -2.384494 C.2        1 UNL1     0.2441
     8 O         -10.317968   -2.825123   -1.957584 O.2        1 UNL1     -0.2702
     9 N         -8.486741   -3.264486   -3.263951 N.am        1 UNL1     -0.2772
     10 C         -7.448567   -3.87228   -2.596041 C.2        1 UNL1     0.1049
     11 C         -6.355415   -3.148359   -2.43736 C.2        1 UNL1     0.0801
     12 C         -6.916489   -5.19617   -0.541402 C.ar        1 UNL1     0.0753
     13 C         -5.866322   -4.253797   -0.301211 C.ar        1 UNL1     0.0305
     14 C         -5.469488   -3.276234   -1.312123 C.2        1 UNL1     0.0924
     15 N         -6.003028   -1.980757   -3.002212 N.pl3        1 UNL1     -0.3170
     16 C         -4.641839   -1.704156   -2.626832 C.3        1 UNL1     0.1275
     17 N         -4.465959   -2.403461   -1.301026 N.2        1 UNL1     -0.2557
     18 C         -3.741868   -2.438819   -3.615784 C.3        1 UNL1     0.0016
     19 C         -4.106361   -1.998711   -5.024698 C.3        1 UNL1     0.0026
     20 N         -3.92799   -0.556799   -5.125205 N.3        1 UNL1     -0.3018
     21 C         -4.70745   0.23412   -4.170607 C.3        1 UNL1     0.0026
     22 C         -4.322081   -0.221248   -2.762053 C.3        1 UNL1     0.0016
     23 C         -3.957928   -0.078856   -6.493167 C.3        1 UNL1     0.0012
     24 C         -4.517263   1.351336   -6.551905 C.3        1 UNL1     -0.0339
     25 C         -5.326588   1.586281   -7.837927 C.3        1 UNL1     -0.0615
     26 C         -5.344164   1.638518   -5.31072 C.3        1 UNL1     -0.0615
     27 C         -7.208107   -6.201585   0.377412 C.ar        1 UNL1     0.1347
     28 C         -6.495403   -6.38853   1.548375 C.ar        1 UNL1     0.0342
     29 C         -5.498054   -5.41925   1.787028 C.ar        1 UNL1     0.1435
     30 C         -5.218699   -4.384984   0.892895 C.ar        1 UNL1     0.0774
     31 O         -4.645386   -5.527255   2.829284 O.3        1 UNL1     -0.4436
     32 C         -3.537497   -4.683608   2.480406 C.3        1 UNL1     0.3143
     33 C         -4.096392   -3.687271   1.484834 C.2        1 UNL1     0.2504
     34 C         -6.584348   -7.585906   2.453074 C.3        1 UNL1     -0.0327
     35 O         -3.17902   -3.944098   3.654233 O.2        1 UNL1     -0.4528
     36 C         0.549885   -3.291914   3.374917 C.3        1 UNL1     0.0854
     37 C         1.350755   -2.563459   2.227971 C.3        1 UNL1     0.0236
     38 C         2.264959   -1.339054   2.714599 C.3        1 UNL1     0.1131
     39 C         1.640599   -0.206649   3.6257 C.3        1 UNL1     0.0200
     40 C         0.13208   0.417427   3.283157 C.3        1 UNL1     0.0661
     41 C         -0.391005   0.978445   1.77013 C.3        1 UNL1     0.0091
     42 C         -2.057084   0.953527   1.002691 C.3        1 UNL1     0.0661
     43 C         -7.6262   -5.122538   -1.842612 C.2        1 UNL1     0.2131
     44 O         -8.236022   -6.056801   -2.330472 O.2        1 UNL1     -0.2851
     45 O         -8.275435   -7.049486   0.088773 O.3        1 UNL1     -0.5056
     46 O         -3.71493   -2.562611   1.249295 O.2        1 UNL1     -0.2836
     47 C         -4.293132   1.810446   2.178953 C.3        1 UNL1     -0.0566
     48 O         -2.004994   2.371665   0.572238 O.3        1 UNL1     -0.3909
     49 C         0.588365   0.517857   0.713632 C.3        1 UNL1     -0.0577
     50 O         -0.881332   -0.361575   3.886378 O.3        1 UNL1     -0.3910
     51 O         0.595831   -2.678802   4.643544 O.3        1 UNL1     -0.3753
     52 C         0.539729   -2.515615   0.891971 C.3        1 UNL1     -0.0564
     53 O         3.268871   -0.895262   1.691107 O.3        1 UNL1     -0.4608
     54 C         3.643811   0.401555   1.455277 C.2        1 UNL1     0.3042
     55 O         3.742199   0.964159   0.365491 O.2        1 UNL1     -0.2512
     56 C         3.89707   1.191586   2.707645 C.3        1 UNL1     0.0332
     57 C         1.965704   -0.577794   5.147125 C.3        1 UNL1     -0.0567
     58 C         -2.5101   -5.586773   1.759104 C.3        1 UNL1     0.0210
     59 C         -0.181716   -3.325268   5.650206 C.3        1 UNL1     0.0372
     60 C         -0.884869   -3.549353   3.074305 C.2        1 UNL1     -0.0208
     61 C         -1.970938   -3.374729   3.82843 C.2        1 UNL1     0.0882
     62 H         -3.826936   -0.169778   1.511348 H        1 UNL1     0.0365
     63 H         -5.584217   -0.763225   0.656941 H        1 UNL1     0.0576
     64 H         -6.644437   1.366793   -1.301562 H        1 UNL1     0.0615
     65 H         -7.622916   -1.501713   -0.545183 H        1 UNL1     0.0622
     66 H         1.022759   -4.28073   3.456643 H        1 UNL1     0.0645
     67 H         2.114442   -3.300497   1.924462 H        1 UNL1     0.0362
     68 H         2.968399   -1.881632   3.364447 H        1 UNL1     0.0741
     69 H         2.275491   0.668014   3.577914 H        1 UNL1     0.0359
     70 H         0.166705   1.343211   3.888786 H        1 UNL1     0.0600
     71 H         -0.125993   2.05026   1.859224 H        1 UNL1     0.0348
     72 H         -2.218752   0.824519   2.082754 H        1 UNL1     0.0602
     73 H         -0.961918   -4.048711   2.14052 H        1 UNL1     0.0628
     74 H         -1.986425   -2.822929   4.768917 H        1 UNL1     0.1022
     75 H         -9.627873   -1.15682   -4.228016 H        1 UNL1     0.0279
     76 H         -10.461961   0.002487   -3.272188 H        1 UNL1     0.0279
     77 H         -8.854566   0.360051   -4.023005 H        1 UNL1     0.0279
     78 H         -8.082276   -2.686245   -3.997519 H        1 UNL1     0.1553
     79 H         -6.420168   -1.619076   -3.840134 H        1 UNL1     0.1484
     80 H         -2.694531   -2.211119   -3.383395 H        1 UNL1     0.0317
     81 H         -3.856048   -3.523688   -3.51743 H        1 UNL1     0.0317
     82 H         -5.133566   -2.289872   -5.289251 H        1 UNL1     0.0428
     83 H         -3.454015   -2.535886   -5.713855 H        1 UNL1     0.0428
     84 H         -4.495426   1.306975   -4.213513 H        1 UNL1     0.0428
     85 H         -5.786122   0.167198   -4.36886 H        1 UNL1     0.0428
     86 H         -4.807942   0.464517   -2.092983 H        1 UNL1     0.0317
     87 H         -3.255592   -0.034467   -2.586521 H        1 UNL1     0.0317
     88 H         -2.928123   -0.067271   -6.873511 H        1 UNL1     0.0429
     89 H         -4.531879   -0.755366   -7.139455 H        1 UNL1     0.0429
     90 H         -3.684341   2.064009   -6.528409 H        1 UNL1     0.0308
     91 H         -5.364511   0.683264   -8.454551 H        1 UNL1     0.0233
     92 H         -6.345367   1.901806   -7.600987 H        1 UNL1     0.0233
     93 H         -4.898025   2.379849   -8.461961 H        1 UNL1     0.0233
     94 H         -6.043003   2.459536   -5.504083 H        1 UNL1     0.0233
     95 H         -5.928754   0.755245   -5.038607 H        1 UNL1     0.0233
     96 H         -4.710004   1.916615   -4.464274 H        1 UNL1     0.0233
     97 H         -6.850893   -7.310082   3.469 H        1 UNL1     0.0280
     98 H         -7.352647   -8.29747   2.123454 H        1 UNL1     0.0280
     99 H         -5.610565   -8.101809   2.479261 H        1 UNL1     0.0280
     100 H         -8.482944   -7.120119   -0.826418 H        1 UNL1     0.2922
     101 H         -3.886992   1.452547   3.124793 H        1 UNL1     0.0236
     102 H         -5.361315   2.014829   2.243731 H        1 UNL1     0.0236
     103 H         -3.826495   2.798503   2.030002 H        1 UNL1     0.0236
     104 H         -1.560925   2.878588   1.279911 H        1 UNL1     0.2098
     105 H         1.104315   1.323707   0.197674 H        1 UNL1     0.0234
     106 H         1.302674   -0.232956   1.051226 H        1 UNL1     0.0234
     107 H         0.0   -0.0   0.0 H        1 UNL1     0.0234
     108 H         -1.729272   -0.101293   3.477698 H        1 UNL1     0.2098
     109 H         0.305349   -3.519597   0.511448 H        1 UNL1     0.0234
     110 H         -0.381758   -1.928484   0.968663 H        1 UNL1     0.0234
     111 H         1.10579   -2.019373   0.09243 H        1 UNL1     0.0234
     112 H         3.240772   2.066735   2.734703 H        1 UNL1     0.0342
     113 H         3.778096   0.586106   3.60491 H        1 UNL1     0.0342
     114 H         4.93541   1.549937   2.683159 H        1 UNL1     0.0342
     115 H         2.114379   0.319463   5.763578 H        1 UNL1     0.0234
     116 H         1.197029   -1.184346   5.630116 H        1 UNL1     0.0234
     117 H         2.934962   -1.089085   5.277751 H        1 UNL1     0.0234
     118 H         -1.83878   -5.007571   1.101182 H        1 UNL1     0.0309
     119 H         -1.906673   -6.186239   2.448102 H        1 UNL1     0.0309
     120 H         -2.983823   -6.29789   1.073534 H        1 UNL1     0.0309
     121 H         -0.447427   -2.574798   6.394215 H        1 UNL1     0.0524
     122 H         -1.120566   -3.742811   5.249888 H        1 UNL1     0.0524
     123 H         0.390985   -4.124554   6.111994 H        1 UNL1     0.0524
@<TRIPOS>BOND
     1     1     2    1
     2     1    42    1
     3     2     3    2
     4     3     4    1
     5     4     5    2
     6     5     7    1
     7     6    75    1
     8     6    76    1
     9     6    77    1
    10     7     9   am
    11     9    10    1
    12    10    11    2
    13    10    43    1
    14    11    14    1
    15    11    15    1
    16    12    13   ar
    17    12    27   ar
    18    12    43    1
    19    13    14    1
    20    13    30   ar
    21    14    17    2
    22    15    16    1
    23    16    17    1
    24    16    18    1
    25    16    22    1
    26    18    19    1
    27    19    20    1
    28    20    21    1
    29    21    22    1
    30    23    24    1
    31    23    88    1
    32    23    89    1
    33    24    25    1
    34    24    26    1
    35    24    90    1
    36    25    91    1
    37    25    92    1
    38    25    93    1
    39    26    94    1
    40    26    95    1
    41    26    96    1
    42    27    28   ar
    43    28    29   ar
    44    29    30   ar
    45    29    31    1
    46    30    33    1
    47    31    32    1
    48    32    33    1
    49    32    35    1
    50    34    97    1
    51    34    98    1
    52    34    99    1
    53    35    61    1
    54    36    37    1
    55    36    60    1
    56    37    38    1
    57    38    39    1
    58    39    40    1
    59    40    41    1
    60    41    42    1
    61    45   100    1
    62    47   101    1
    63    47   102    1
    64    47   103    1
    65    48   104    1
    66    49   105    1
    67    49   106    1
    68    49   107    1
    69    50   108    1
    70    51    59    1
    71    52   109    1
    72    52   110    1
    73    52   111    1
    74    53    54    1
    75    54    55    2
    76    54    56    1
    77    56   112    1
    78    56   113    1
    79    56   114    1
    80    57   115    1
    81    57   116    1
    82    57   117    1
    83    58   118    1
    84    58   119    1
    85    58   120    1
    86    59   121    1
    87    59   122    1
    88    59   123    1
    89    60    61    2
    90     1    47    1
    91     1    62    1
    92     2    63    1
    93     3    64    1
    94     4    65    1
    95     5     6    1
    96     7     8    2
    97     9    78    1
    98    15    79    1
    99    18    80    1
   100    18    81    1
   101    19    82    1
   102    19    83    1
   103    20    23    1
   104    21    84    1
   105    21    85    1
   106    22    86    1
   107    22    87    1
   108    27    45    1
   109    28    34    1
   110    32    58    1
   111    33    46    2
   112    36    51    1
   113    36    66    1
   114    37    52    1
   115    37    67    1
   116    38    53    1
   117    38    68    1
   118    42    48    1
   119    42    72    1
   120    43    44    2
   121    60    73    1
   122    61    74    1
   123    39    69    1
   124    39    57    1
   125    40    70    1
   126    40    50    1
   127    41    71    1
   128    41    49    1
