@<TRIPOS>MOLECULE
*****
 123 128 0 0 0
SMALL
GASTEIGER

@<TRIPOS>ATOM
     1 C         -5.246397   -1.27524   -0.488199 C.3        1 UNL1     0.0009
     2 C         -6.700044   -1.20281   -1.636546 C.2        1 UNL1     -0.0787
     3 C         -7.991726   -0.655743   -1.994766 C.2        1 UNL1     -0.0649
     4 C         -8.886753   -0.937881   -3.403908 C.2        1 UNL1     -0.0542
     5 C         -9.922747   -0.450612   -4.238392 C.2        1 UNL1     0.0115
     6 C         -11.061408   0.600858   -4.344143 C.3        1 UNL1     -0.0348
     7 C         -10.034606   -1.003578   -5.741291 C.2        1 UNL1     0.2441
     8 O         -10.856345   -1.843371   -6.081903 O.2        1 UNL1     -0.2702
     9 N         -9.303823   -0.272311   -6.693845 N.am        1 UNL1     -0.2772
     10 C         -8.01819   -0.75396   -6.785956 C.2        1 UNL1     0.1049
     11 C         -7.163342   -0.307494   -5.883668 C.2        1 UNL1     0.0801
     12 C         -6.705454   -2.868111   -7.039771 C.ar        1 UNL1     0.0753
     13 C         -5.934141   -2.431729   -5.915825 C.ar        1 UNL1     0.0305
     14 C         -6.054997   -1.075767   -5.384964 C.2        1 UNL1     0.0924
     15 N         -7.282149   0.704995   -5.007725 N.pl3        1 UNL1     -0.3170
     16 C         -6.004696   0.887616   -4.371314 C.3        1 UNL1     0.1275
     17 N         -5.357536   -0.474738   -4.425152 N.2        1 UNL1     -0.2557
     18 C         -5.17206   1.788134   -5.278775 C.3        1 UNL1     0.0016
     19 C         -5.9413   3.076485   -5.523742 C.3        1 UNL1     0.0026
     20 N         -6.198831   3.718427   -4.242096 N.3        1 UNL1     -0.3018
     21 C         -6.941891   2.904953   -3.277476 C.3        1 UNL1     0.0026
     22 C         -6.148939   1.618091   -3.042725 C.3        1 UNL1     0.0016
     23 C         -6.6568   5.086733   -4.378648 C.3        1 UNL1     0.0012
     24 C         -6.383902   5.60687   -5.798768 C.3        1 UNL1     -0.0339
     25 C         -6.217601   7.135307   -5.815568 C.3        1 UNL1     -0.0615
     26 C         -5.171063   4.906123   -6.385927 C.3        1 UNL1     -0.0615
     27 C         -6.498361   -4.119602   -7.615099 C.ar        1 UNL1     0.1347
     28 C         -5.525653   -5.00223   -7.180521 C.ar        1 UNL1     0.0342
     29 C         -4.811595   -4.571485   -6.042214 C.ar        1 UNL1     0.1435
     30 C         -5.032865   -3.335692   -5.433055 C.ar        1 UNL1     0.0774
     31 O         -3.757898   -5.269605   -5.565393 O.3        1 UNL1     -0.4436
     32 C         -3.032709   -4.327369   -4.760926 C.3        1 UNL1     0.3143
     33 C         -4.049513   -3.273311   -4.371974 C.2        1 UNL1     0.2504
     34 C         -5.078432   -6.244974   -7.89863 C.3        1 UNL1     -0.0327
     35 O         -2.649418   -5.001924   -3.556221 O.2        1 UNL1     -0.4528
     36 C         0.596121   -3.379021   -2.442332 C.3        1 UNL1     0.0854
     37 C         0.893287   -1.863869   -2.12057 C.3        1 UNL1     0.0236
     38 C         1.512084   -1.590483   -0.666577 C.3        1 UNL1     0.1131
     39 C         0.809337   -2.199661   0.613 C.3        1 UNL1     0.0200
     40 C         -0.850299   -2.145861   0.771602 C.3        1 UNL1     0.0661
     41 C         -1.82422   -0.772397   0.564999 C.3        1 UNL1     0.0091
     42 C         -3.542135   -0.614652   -0.058929 C.3        1 UNL1     0.0661
     43 C         -7.671956   -1.908235   -7.628645 C.2        1 UNL1     0.2131
     44 O         -8.0873   -1.98647   -8.77062 O.2        1 UNL1     -0.2851
     45 O         -7.322606   -4.485717   -8.67718 O.3        1 UNL1     -0.5056
     46 O         -4.057751   -2.558573   -3.394765 O.2        1 UNL1     -0.2836
     47 C         -5.618132   -2.051089   0.804029 C.3        1 UNL1     -0.0566
     48 O         -3.982674   0.272586   1.044633 O.3        1 UNL1     -0.3909
     49 C         -1.008476   0.307109   -0.110813 C.3        1 UNL1     -0.0577
     50 O         -1.450028   -3.262079   0.145418 O.3        1 UNL1     -0.3910
     51 O         0.742897   -4.277642   -1.366057 O.3        1 UNL1     -0.3753
     52 C         -0.16833   -0.91331   -2.764274 C.3        1 UNL1     -0.0564
     53 O         2.105425   -0.220414   -0.514315 O.3        1 UNL1     -0.4608
     54 C         2.025469   0.560341   0.609054 C.2        1 UNL1     0.3042
     55 O         1.035431   0.757932   1.312348 O.2        1 UNL1     -0.2512
     56 C         3.336912   1.173815   1.009653 C.3        1 UNL1     0.0332
     57 C         1.546864   -3.576077   0.958987 C.3        1 UNL1     -0.0567
     58 C         -1.975808   -3.682963   -5.687873 C.3        1 UNL1     0.0210
     59 C         -0.461535   -4.923301   -0.955774 C.3        1 UNL1     0.0372
     60 C         -0.73929   -3.643989   -3.043688 C.2        1 UNL1     -0.0208
     61 C         -1.640542   -4.587123   -2.766223 C.2        1 UNL1     0.0882
     62 H         -4.773836   -1.999244   -1.162896 H        1 UNL1     0.0365
     63 H         -6.437175   -1.988834   -2.347557 H        1 UNL1     0.0576
     64 H         -8.448202   0.155529   -1.423298 H        1 UNL1     0.0615
     65 H         -8.398638   -1.807096   -3.853011 H        1 UNL1     0.0622
     66 H         1.332274   -3.647007   -3.213246 H        1 UNL1     0.0645
     67 H         1.747676   -1.613765   -2.773277 H        1 UNL1     0.0362
     68 H         2.462468   -2.136852   -0.765435 H        1 UNL1     0.0741
     69 H         1.148667   -1.659489   1.486772 H        1 UNL1     0.0359
     70 H         -0.945125   -2.352356   1.854851 H        1 UNL1     0.0600
     71 H         -1.856269   -0.39957   1.607558 H        1 UNL1     0.0348
     72 H         -3.423233   -1.666397   0.239414 H        1 UNL1     0.0602
     73 H         -0.874343   -3.012481   -3.886426 H        1 UNL1     0.0628
     74 H         -1.605241   -5.235007   -1.889731 H        1 UNL1     0.1022
     75 H         -12.050123   0.13168   -4.122 H        1 UNL1     0.0279
     76 H         -11.028389   1.424719   -3.634754 H        1 UNL1     0.0279
     77 H         -11.216864   0.957346   -5.372954 H        1 UNL1     0.0279
     78 H         -9.245929   0.702303   -6.406003 H        1 UNL1     0.1553
     79 H         -7.954973   1.443918   -5.098462 H        1 UNL1     0.1484
     80 H         -4.205539   1.98381   -4.798862 H        1 UNL1     0.0317
     81 H         -4.95464   1.291173   -6.230305 H        1 UNL1     0.0317
     82 H         -6.878241   2.893618   -6.070198 H        1 UNL1     0.0428
     83 H         -5.330461   3.703081   -6.174359 H        1 UNL1     0.0428
     84 H         -7.052409   3.378797   -2.297135 H        1 UNL1     0.0428
     85 H         -7.975216   2.724865   -3.604775 H        1 UNL1     0.0428
     86 H         -6.649883   1.111954   -2.238444 H        1 UNL1     0.0317
     87 H         -5.165402   1.855942   -2.61943 H        1 UNL1     0.0317
     88 H         -7.740315   5.10342   -4.202546 H        1 UNL1     0.0429
     89 H         -6.198163   5.737984   -3.623467 H        1 UNL1     0.0429
     90 H         -7.226944   5.340207   -6.447137 H        1 UNL1     0.0308
     91 H         -5.170478   7.422945   -5.681774 H        1 UNL1     0.0233
     92 H         -6.587311   7.553807   -6.7546 H        1 UNL1     0.0233
     93 H         -6.786875   7.62614   -5.016916 H        1 UNL1     0.0233
     94 H         -4.369474   5.629477   -6.570449 H        1 UNL1     0.0233
     95 H         -4.79479   4.158111   -5.682465 H        1 UNL1     0.0233
     96 H         -5.414381   4.411525   -7.330457 H        1 UNL1     0.0233
     97 H         -5.918228   -6.838858   -8.246875 H        1 UNL1     0.0280
     98 H         -4.482154   -6.015175   -8.791323 H        1 UNL1     0.0280
     99 H         -4.473853   -6.866927   -7.218371 H        1 UNL1     0.0280
     100 H         -7.0006   -4.238106   -9.526076 H        1 UNL1     0.2922
     101 H         -4.781158   -2.026047   1.501528 H        1 UNL1     0.0236
     102 H         -5.95904   -3.067625   0.610589 H        1 UNL1     0.0236
     103 H         -6.450396   -1.574379   1.348342 H        1 UNL1     0.0236
     104 H         -4.732316   -0.165007   1.493544 H        1 UNL1     0.2098
     105 H         -1.206778   0.420825   -1.173619 H        1 UNL1     0.0234
     106 H         -1.037554   1.277374   0.384837 H        1 UNL1     0.0234
     107 H         0.0   0.0   0.0 H        1 UNL1     0.0234
     108 H         -1.024683   -3.368392   -0.727249 H        1 UNL1     0.2098
     109 H         -0.777519   -0.397777   -2.008743 H        1 UNL1     0.0234
     110 H         0.270546   -0.176786   -3.445936 H        1 UNL1     0.0234
     111 H         -0.879232   -1.466734   -3.392196 H        1 UNL1     0.0234
     112 H         3.906725   0.467667   1.62122 H        1 UNL1     0.0342
     113 H         3.91659   1.500406   0.147589 H        1 UNL1     0.0342
     114 H         3.127579   2.059663   1.624973 H        1 UNL1     0.0342
     115 H         1.434639   -3.844457   2.018499 H        1 UNL1     0.0234
     116 H         1.201658   -4.425809   0.366672 H        1 UNL1     0.0234
     117 H         2.64537   -3.521476   0.868192 H        1 UNL1     0.0234
     118 H         -1.884468   -4.219566   -6.648456 H        1 UNL1     0.0309
     119 H         -2.167041   -2.623577   -5.886201 H        1 UNL1     0.0309
     120 H         -0.963744   -3.735712   -5.27188 H        1 UNL1     0.0309
     121 H         -0.871962   -4.355803   -0.120998 H        1 UNL1     0.0524
     122 H         -1.222104   -4.936384   -1.754148 H        1 UNL1     0.0524
     123 H         -0.254757   -5.944693   -0.649026 H        1 UNL1     0.0524
@<TRIPOS>BOND
     1     1     2    1
     2     1    42    1
     3     2     3    2
     4     3     4    1
     5     4     5    2
     6     5     7    1
     7     6    75    1
     8     6    76    1
     9     6    77    1
    10     7     9   am
    11     9    10    1
    12    10    11    2
    13    10    43    1
    14    11    14    1
    15    11    15    1
    16    12    13   ar
    17    12    27   ar
    18    12    43    1
    19    13    14    1
    20    13    30   ar
    21    14    17    2
    22    15    16    1
    23    16    17    1
    24    16    18    1
    25    16    22    1
    26    18    19    1
    27    19    20    1
    28    20    21    1
    29    21    22    1
    30    23    24    1
    31    23    88    1
    32    23    89    1
    33    24    25    1
    34    24    26    1
    35    24    90    1
    36    25    91    1
    37    25    92    1
    38    25    93    1
    39    26    94    1
    40    26    95    1
    41    26    96    1
    42    27    28   ar
    43    28    29   ar
    44    29    30   ar
    45    29    31    1
    46    30    33    1
    47    31    32    1
    48    32    33    1
    49    32    35    1
    50    34    97    1
    51    34    98    1
    52    34    99    1
    53    35    61    1
    54    36    37    1
    55    36    60    1
    56    37    38    1
    57    38    39    1
    58    39    40    1
    59    40    41    1
    60    41    42    1
    61    45   100    1
    62    47   101    1
    63    47   102    1
    64    47   103    1
    65    48   104    1
    66    49   105    1
    67    49   106    1
    68    49   107    1
    69    50   108    1
    70    51    59    1
    71    52   109    1
    72    52   110    1
    73    52   111    1
    74    53    54    1
    75    54    55    2
    76    54    56    1
    77    56   112    1
    78    56   113    1
    79    56   114    1
    80    57   115    1
    81    57   116    1
    82    57   117    1
    83    58   118    1
    84    58   119    1
    85    58   120    1
    86    59   121    1
    87    59   122    1
    88    59   123    1
    89    60    61    2
    90     1    47    1
    91     1    62    1
    92     2    63    1
    93     3    64    1
    94     4    65    1
    95     5     6    1
    96     7     8    2
    97     9    78    1
    98    15    79    1
    99    18    80    1
   100    18    81    1
   101    19    82    1
   102    19    83    1
   103    20    23    1
   104    21    84    1
   105    21    85    1
   106    22    86    1
   107    22    87    1
   108    27    45    1
   109    28    34    1
   110    32    58    1
   111    33    46    2
   112    36    51    1
   113    36    66    1
   114    37    52    1
   115    37    67    1
   116    38    53    1
   117    38    68    1
   118    42    48    1
   119    42    72    1
   120    43    44    2
   121    60    73    1
   122    61    74    1
   123    39    69    1
   124    39    57    1
   125    40    70    1
   126    40    50    1
   127    41    71    1
   128    41    49    1
