@<TRIPOS>MOLECULE
*****
 123 128 0 0 0
SMALL
GASTEIGER

@<TRIPOS>ATOM
     1 C         2.818669   4.23685   2.028784 C.3        1 UNL1     0.0009
     2 C         3.466989   5.05577   3.560478 C.2        1 UNL1     -0.0787
     3 C         3.369735   6.089857   4.569068 C.2        1 UNL1     -0.0649
     4 C         4.314192   6.277325   5.961624 C.2        1 UNL1     -0.0542
     5 C         4.384923   6.87317   7.244996 C.2        1 UNL1     0.0115
     6 C         3.706444   7.900217   8.192711 C.3        1 UNL1     -0.0348
     7 C         5.442515   6.302397   8.309283 C.2        1 UNL1     0.2441
     8 O         6.502793   6.859538   8.558145 O.2        1 UNL1     -0.2702
     9 N         4.95644   5.265498   9.124588 N.am        1 UNL1     -0.2772
     10 C         5.154146   4.045774   8.519189 C.2        1 UNL1     0.1049
     11 C         4.247205   3.683433   7.630151 C.2        1 UNL1     0.0801
     12 C         6.890712   2.660268   7.369387 C.ar        1 UNL1     0.0753
     13 C         5.932589   2.468255   6.323566 C.ar        1 UNL1     0.0305
     14 C         4.535526   2.865403   6.483384 C.2        1 UNL1     0.0924
     15 N         3.041026   4.212279   7.361859 N.pl3        1 UNL1     -0.3170
     16 C         2.378296   3.342889   6.426335 C.3        1 UNL1     0.1275
     17 N         3.500961   2.676499   5.669188 N.2        1 UNL1     -0.2557
     18 C         1.70041   2.241032   7.235089 C.3        1 UNL1     0.0016
     19 C         0.77652   2.885519   8.256194 C.3        1 UNL1     0.0026
     20 N         -0.205511   3.697878   7.551413 N.3        1 UNL1     -0.3018
     21 C         0.353835   4.747431   6.697048 C.3        1 UNL1     0.0026
     22 C         1.274923   4.077236   5.676101 C.3        1 UNL1     0.0016
     23 C         -1.306744   4.111986   8.397843 C.3        1 UNL1     0.0012
     24 C         -0.959954   5.416048   9.133312 C.3        1 UNL1     -0.0339
     25 C         -1.590783   5.456049   10.534922 C.3        1 UNL1     -0.0615
     26 C         0.54706   5.595204   9.193254 C.3        1 UNL1     -0.0615
     27 C         8.189896   2.17082   7.256781 C.ar        1 UNL1     0.1347
     28 C         8.633906   1.442412   6.167594 C.ar        1 UNL1     0.0342
     29 C         7.688045   1.307948   5.129119 C.ar        1 UNL1     0.1435
     30 C         6.394254   1.824057   5.212536 C.ar        1 UNL1     0.0774
     31 O         7.931788   0.532834   4.049863 O.3        1 UNL1     -0.4436
     32 C         6.635168   0.267014   3.493996 C.3        1 UNL1     0.3143
     33 C         5.753968   1.397404   3.985847 C.2        1 UNL1     0.2504
     34 C         9.924346   0.675396   6.086661 C.3        1 UNL1     -0.0327
     35 O         6.743509   0.41076   2.072429 O.2        1 UNL1     -0.4528
     36 C         4.181029   -1.963786   0.588072 C.3        1 UNL1     0.0854
     37 C         2.623645   -2.02652   0.829198 C.3        1 UNL1     0.0236
     38 C         1.730151   -1.946056   -0.500065 C.3        1 UNL1     0.1131
     39 C         1.983704   -0.788212   -1.547624 C.3        1 UNL1     0.0200
     40 C         2.232045   0.778491   -1.031672 C.3        1 UNL1     0.0661
     41 C         1.26064   1.627742   0.06958 C.3        1 UNL1     0.0091
     42 C         1.702571   2.9145   1.300171 C.3        1 UNL1     0.0661
     43 C         6.42939   3.320017   8.616052 C.2        1 UNL1     0.2131
     44 O         6.991732   3.199117   9.689314 O.2        1 UNL1     -0.2851
     45 O         9.073443   2.440279   8.299937 O.3        1 UNL1     -0.5056
     46 O         4.759874   1.857119   3.46981 O.2        1 UNL1     -0.2836
     47 C         3.149177   5.09444   0.777671 C.3        1 UNL1     -0.0566
     48 O         0.59876   3.825899   0.912781 O.3        1 UNL1     -0.3909
     49 C         0.341572   0.648749   0.765554 C.3        1 UNL1     -0.0577
     50 O         3.59764   1.000366   -0.742461 O.3        1 UNL1     -0.3910
     51 O         4.589179   -1.671998   -0.729389 O.3        1 UNL1     -0.3753
     52 C         2.210392   -1.305058   2.153457 C.3        1 UNL1     -0.0564
     53 O         0.301688   -2.355147   -0.289194 O.3        1 UNL1     -0.4608
     54 C         -0.787374   -1.778109   -0.888277 C.2        1 UNL1     0.3042
     55 O         -1.580331   -0.981462   -0.387866 O.2        1 UNL1     -0.2512
     56 C         -0.948785   -2.154954   -2.333492 C.3        1 UNL1     0.0332
     57 C         2.958976   -1.364469   -2.676759 C.3        1 UNL1     -0.0567
     58 C         6.149794   -1.056641   4.129511 C.3        1 UNL1     0.0210
     59 C         5.150281   -2.774085   -1.441031 C.3        1 UNL1     0.0372
     60 C         4.918775   -1.030668   1.482602 C.2        1 UNL1     -0.0208
     61 C         5.872226   -0.14018   1.205643 C.2        1 UNL1     0.0882
     62 H         3.615707   3.488473   2.11466 H        1 UNL1     0.0365
     63 H         4.377983   4.478049   3.730179 H        1 UNL1     0.0576
     64 H         2.526147   6.783105   4.598624 H        1 UNL1     0.0615
     65 H         5.160703   5.605716   5.794755 H        1 UNL1     0.0622
     66 H         4.540335   -2.971181   0.84125 H        1 UNL1     0.0645
     67 H         2.443995   -3.066827   1.151761 H        1 UNL1     0.0362
     68 H         2.060576   -2.869328   -0.999973 H        1 UNL1     0.0741
     69 H         1.111165   -0.694022   -2.180248 H        1 UNL1     0.0359
     70 H         2.058467   1.321468   -1.980411 H        1 UNL1     0.0600
     71 H         0.560139   2.122051   -0.631786 H        1 UNL1     0.0348
     72 H         2.530472   2.889624   0.576793 H        1 UNL1     0.0602
     73 H         4.669196   -1.244169   2.492243 H        1 UNL1     0.0628
     74 H         6.146061   0.177058   0.19886 H        1 UNL1     0.1022
     75 H         4.082104   8.93146   7.986673 H        1 UNL1     0.0279
     76 H         2.630078   8.018052   8.089659 H        1 UNL1     0.0279
     77 H         4.001282   7.768105   9.244052 H        1 UNL1     0.0279
     78 H         3.954513   5.380096   9.262745 H        1 UNL1     0.1553
     79 H         2.542899   4.81215   7.99349 H        1 UNL1     0.1484
     80 H         1.14715   1.585091   6.552147 H        1 UNL1     0.0317
     81 H         2.442473   1.613382   7.740113 H        1 UNL1     0.0317
     82 H         1.335273   3.486698   8.988512 H        1 UNL1     0.0428
     83 H         0.304901   2.082189   8.823015 H        1 UNL1     0.0428
     84 H         -0.400077   5.290112   6.11832 H        1 UNL1     0.0428
     85 H         0.853303   5.530009   7.284773 H        1 UNL1     0.0428
     86 H         1.559202   4.85298   4.989519 H        1 UNL1     0.0317
     87 H         0.699571   3.383422   5.05105 H        1 UNL1     0.0317
     88 H         -2.18004   4.293373   7.757727 H        1 UNL1     0.0429
     89 H         -1.585427   3.320428   9.105335 H        1 UNL1     0.0429
     90 H         -1.339925   6.266556   8.554976 H        1 UNL1     0.0308
     91 H         -1.438684   4.511982   11.066624 H        1 UNL1     0.0233
     92 H         -1.168357   6.272366   11.125508 H        1 UNL1     0.0233
     93 H         -2.672898   5.631298   10.501017 H        1 UNL1     0.0233
     94 H         0.814825   6.270521   10.013062 H        1 UNL1     0.0233
     95 H         1.030768   4.632003   9.378273 H        1 UNL1     0.0233
     96 H         0.93672   6.012497   8.260515 H        1 UNL1     0.0233
     97 H         9.994228   0.090622   5.174308 H        1 UNL1     0.0280
     98 H         10.800041   1.337523   6.087046 H        1 UNL1     0.0280
     99 H         9.999164   -0.012596   6.944662 H        1 UNL1     0.0280
     100 H         9.062544   1.806779   8.995769 H        1 UNL1     0.2922
     101 H         3.97219   4.639416   0.226979 H        1 UNL1     0.0236
     102 H         3.343791   6.140045   1.013929 H        1 UNL1     0.0236
     103 H         2.312258   5.119578   0.059947 H        1 UNL1     0.0236
     104 H         0.505852   3.780263   -0.058947 H        1 UNL1     0.2098
     105 H         0.82577   0.040637   1.52553 H        1 UNL1     0.0234
     106 H         -0.575529   1.086391   1.159665 H        1 UNL1     0.0234
     107 H         -0.0   0.0   0.0 H        1 UNL1     0.0234
     108 H         3.655497   1.834489   -0.237823 H        1 UNL1     0.2098
     109 H         2.675826   -1.761164   3.038358 H        1 UNL1     0.0234
     110 H         2.420837   -0.2302   2.141736 H        1 UNL1     0.0234
     111 H         1.127158   -1.362377   2.324529 H        1 UNL1     0.0234
     112 H         -1.820745   -1.646184   -2.75561 H        1 UNL1     0.0342
     113 H         -0.052876   -1.942073   -2.914761 H        1 UNL1     0.0342
     114 H         -1.131352   -3.23704   -2.387577 H        1 UNL1     0.0342
     115 H         2.746664   -0.926887   -3.661966 H        1 UNL1     0.0234
     116 H         4.019446   -1.207889   -2.469553 H        1 UNL1     0.0234
     117 H         2.807179   -2.437918   -2.883175 H        1 UNL1     0.0234
     118 H         6.12498   -1.883178   3.39792 H        1 UNL1     0.0309
     119 H         6.746668   -1.36202   4.994779 H        1 UNL1     0.0309
     120 H         5.113765   -0.999155   4.480859 H        1 UNL1     0.0309
     121 H         5.818617   -2.369997   -2.200896 H        1 UNL1     0.0524
     122 H         5.74833   -3.432283   -0.788995 H        1 UNL1     0.0524
     123 H         4.363425   -3.360219   -1.907291 H        1 UNL1     0.0524
@<TRIPOS>BOND
     1     1     2    1
     2     1    42    1
     3     2     3    2
     4     3     4    1
     5     4     5    2
     6     5     7    1
     7     6    75    1
     8     6    76    1
     9     6    77    1
    10     7     9   am
    11     9    10    1
    12    10    11    2
    13    10    43    1
    14    11    14    1
    15    11    15    1
    16    12    13   ar
    17    12    27   ar
    18    12    43    1
    19    13    14    1
    20    13    30   ar
    21    14    17    2
    22    15    16    1
    23    16    17    1
    24    16    18    1
    25    16    22    1
    26    18    19    1
    27    19    20    1
    28    20    21    1
    29    21    22    1
    30    23    24    1
    31    23    88    1
    32    23    89    1
    33    24    25    1
    34    24    26    1
    35    24    90    1
    36    25    91    1
    37    25    92    1
    38    25    93    1
    39    26    94    1
    40    26    95    1
    41    26    96    1
    42    27    28   ar
    43    28    29   ar
    44    29    30   ar
    45    29    31    1
    46    30    33    1
    47    31    32    1
    48    32    33    1
    49    32    35    1
    50    34    97    1
    51    34    98    1
    52    34    99    1
    53    35    61    1
    54    36    37    1
    55    36    60    1
    56    37    38    1
    57    38    39    1
    58    39    40    1
    59    40    41    1
    60    41    42    1
    61    45   100    1
    62    47   101    1
    63    47   102    1
    64    47   103    1
    65    48   104    1
    66    49   105    1
    67    49   106    1
    68    49   107    1
    69    50   108    1
    70    51    59    1
    71    52   109    1
    72    52   110    1
    73    52   111    1
    74    53    54    1
    75    54    55    2
    76    54    56    1
    77    56   112    1
    78    56   113    1
    79    56   114    1
    80    57   115    1
    81    57   116    1
    82    57   117    1
    83    58   118    1
    84    58   119    1
    85    58   120    1
    86    59   121    1
    87    59   122    1
    88    59   123    1
    89    60    61    2
    90     1    47    1
    91     1    62    1
    92     2    63    1
    93     3    64    1
    94     4    65    1
    95     5     6    1
    96     7     8    2
    97     9    78    1
    98    15    79    1
    99    18    80    1
   100    18    81    1
   101    19    82    1
   102    19    83    1
   103    20    23    1
   104    21    84    1
   105    21    85    1
   106    22    86    1
   107    22    87    1
   108    27    45    1
   109    28    34    1
   110    32    58    1
   111    33    46    2
   112    36    51    1
   113    36    66    1
   114    37    52    1
   115    37    67    1
   116    38    53    1
   117    38    68    1
   118    42    48    1
   119    42    72    1
   120    43    44    2
   121    60    73    1
   122    61    74    1
   123    39    69    1
   124    39    57    1
   125    40    70    1
   126    40    50    1
   127    41    71    1
   128    41    49    1
