@<TRIPOS>MOLECULE
*****
 123 128 0 0 0
SMALL
GASTEIGER

@<TRIPOS>ATOM
     1 C         -2.636183   4.259384   1.878419 C.3        1 UNL1     0.0009
     2 C         -4.266364   5.135176   1.766453 C.2        1 UNL1     -0.0787
     3 C         -5.05057   6.28246   1.36049 C.2        1 UNL1     -0.0649
     4 C         -6.730797   6.474885   1.439036 C.2        1 UNL1     -0.0542
     5 C         -7.841341   7.197683   0.937704 C.2        1 UNL1     0.0115
     6 C         -8.259248   8.42619   0.083627 C.3        1 UNL1     -0.0348
     7 C         -9.314742   6.590333   1.130586 C.2        1 UNL1     0.2441
     8 O         -10.093275   6.991473   1.984693 O.2        1 UNL1     -0.2702
     9 N         -9.74643   5.750207   0.08944 N.am        1 UNL1     -0.2772
     10 C         -9.35728   4.452008   0.327267 C.2        1 UNL1     0.1049
     11 C         -8.122153   4.141314   -0.022236 C.2        1 UNL1     0.0801
     12 C         -9.347047   2.675229   2.08803 C.ar        1 UNL1     0.0753
     13 C         -7.950745   2.521332   1.813688 C.ar        1 UNL1     0.0305
     14 C         -7.323328   3.158093   0.657862 C.2        1 UNL1     0.0924
     15 N         -7.237293   4.825479   -0.767532 N.pl3        1 UNL1     -0.3170
     16 C         -6.100639   3.972663   -0.993319 C.3        1 UNL1     0.1275
     17 N         -6.08012   3.046986   0.198496 N.2        1 UNL1     -0.2557
     18 C         -6.423446   3.099585   -2.202133 C.3        1 UNL1     0.0016
     19 C         -6.773738   4.002241   -3.374353 C.3        1 UNL1     0.0026
     20 N         -5.640917   4.876068   -3.646693 N.3        1 UNL1     -0.3018
     21 C         -5.216026   5.711988   -2.521937 C.3        1 UNL1     0.0026
     22 C         -4.864604   4.78463   -1.35729 C.3        1 UNL1     0.0016
     23 C         -5.750591   5.561624   -4.918946 C.3        1 UNL1     0.0012
     24 C         -7.217417   5.622383   -5.373354 C.3        1 UNL1     -0.0339
     25 C         -8.043751   4.479659   -4.760646 C.3        1 UNL1     -0.0615
     26 C         -7.809681   6.980927   -5.041147 C.3        1 UNL1     -0.0615
     27 C         -9.961965   1.969654   3.119611 C.ar        1 UNL1     0.1347
     28 C         -9.295054   1.055461   3.915556 C.ar        1 UNL1     0.0342
     29 C         -7.910996   0.956783   3.65902 C.ar        1 UNL1     0.1435
     30 C         -7.274214   1.684157   2.652712 C.ar        1 UNL1     0.0774
     31 O         -7.144279   0.030836   4.275278 O.3        1 UNL1     -0.4436
     32 C         -5.976735   -0.082301   3.447682 C.3        1 UNL1     0.3143
     33 C         -5.900694   1.227093   2.688789 C.2        1 UNL1     0.2504
     34 C         -9.934616   0.083175   4.86725 C.3        1 UNL1     -0.0327
     35 O         -4.83981   -0.126293   4.318726 O.2        1 UNL1     -0.4528
     36 C         -2.226823   -2.206429   2.515002 C.3        1 UNL1     0.0854
     37 C         -1.585366   -1.984268   1.09138 C.3        1 UNL1     0.0236
     38 C         0.01673   -1.915183   1.075278 C.3        1 UNL1     0.1131
     39 C         0.770853   -0.945773   2.07218 C.3        1 UNL1     0.0200
     40 C         0.218406   0.608654   2.319156 C.3        1 UNL1     0.0661
     41 C         -0.171397   1.729072   1.106586 C.3        1 UNL1     0.0091
     42 C         -1.432003   3.06154   1.078243 C.3        1 UNL1     0.0661
     43 C         -10.137554   3.543514   1.180595 C.2        1 UNL1     0.2131
     44 O         -11.34539   3.459026   1.05125 O.2        1 UNL1     -0.2851
     45 O         -11.314808   2.211317   3.349512 O.3        1 UNL1     -0.5056
     46 O         -4.923424   1.779675   2.235525 O.2        1 UNL1     -0.2836
     47 C         -1.755799   4.89818   2.98605 C.3        1 UNL1     -0.0566
     48 O         -0.49878   4.089625   0.557425 O.3        1 UNL1     -0.3909
     49 C         -0.267422   1.002615   -0.216492 C.3        1 UNL1     -0.0577
     50 O         -0.762971   0.636112   3.335949 O.3        1 UNL1     -0.3910
     51 O         -1.338475   -2.142332   3.607779 O.3        1 UNL1     -0.3753
     52 C         -2.466511   -1.054299   0.194893 C.3        1 UNL1     -0.0564
     53 O         0.610214   -2.056949   -0.295855 O.3        1 UNL1     -0.4608
     54 C         -0.088604   -2.008329   -1.473657 C.2        1 UNL1     0.3042
     55 O         -0.240554   -1.036176   -2.212352 O.2        1 UNL1     -0.2512
     56 C         -0.665001   -3.332865   -1.886068 C.3        1 UNL1     0.0332
     57 C         1.184718   -1.802717   3.357691 C.3        1 UNL1     -0.0567
     58 C         -6.260636   -1.224529   2.444565 C.3        1 UNL1     0.0210
     59 C         -0.794341   -0.848209   3.862788 C.3        1 UNL1     0.0372
     60 C         -3.369085   -1.308308   2.837149 C.2        1 UNL1     -0.0208
     61 C         -3.644604   -0.624941   3.948833 C.2        1 UNL1     0.0882
     62 H         -3.148096   3.40583   2.338964 H        1 UNL1     0.0365
     63 H         -4.908793   4.439941   2.310882 H        1 UNL1     0.0576
     64 H         -4.610936   7.103211   0.789354 H        1 UNL1     0.0615
     65 H         -7.056444   5.658716   2.089655 H        1 UNL1     0.0622
     66 H         -2.644474   -3.222273   2.474083 H        1 UNL1     0.0645
     67 H         -1.769332   -2.935853   0.562985 H        1 UNL1     0.0362
     68 H         0.248247   -2.932382   1.426316 H        1 UNL1     0.0741
     69 H         1.776482   -0.784827   1.707193 H        1 UNL1     0.0359
     70 H         1.115011   1.057454   2.787918 H        1 UNL1     0.0600
     71 H         0.802682   2.245638   1.000356 H        1 UNL1     0.0348
     72 H         -1.273564   2.816479   2.138506 H        1 UNL1     0.0602
     73 H         -4.084053   -1.357886   2.053816 H        1 UNL1     0.0628
     74 H         -2.944154   -0.477397   4.771534 H        1 UNL1     0.1022
     75 H         -7.858801   9.368317   0.529802 H        1 UNL1     0.0279
     76 H         -7.872288   8.465103   -0.932157 H        1 UNL1     0.0279
     77 H         -9.342259   8.615769   0.112727 H        1 UNL1     0.0279
     78 H         -9.317949   6.042912   -0.786234 H        1 UNL1     0.1553
     79 H         -7.491753   5.568886   -1.391654 H        1 UNL1     0.1484
     80 H         -5.556218   2.467566   -2.428482 H        1 UNL1     0.0317
     81 H         -7.256457   2.422536   -1.984538 H        1 UNL1     0.0317
     82 H         -7.685974   4.585524   -3.180657 H        1 UNL1     0.0428
     83 H         -7.00218   3.35932   -4.224951 H        1 UNL1     0.0428
     84 H         -4.315522   6.299097   -2.72738 H        1 UNL1     0.0428
     85 H         -5.97282   6.465671   -2.263983 H        1 UNL1     0.0428
     86 H         -4.434224   5.417167   -0.603195 H        1 UNL1     0.0317
     87 H         -4.034408   4.125939   -1.640128 H        1 UNL1     0.0317
     88 H         -5.382845   6.587595   -4.786877 H        1 UNL1     0.0429
     89 H         -5.118836   5.089284   -5.682198 H        1 UNL1     0.0429
     90 H         -7.258908   5.536543   -6.465655 H        1 UNL1     0.0308
     91 H         -8.932041   4.861452   -4.248515 H        1 UNL1     0.0233
     92 H         -8.35173   3.769307   -5.531463 H        1 UNL1     0.0233
     93 H         -7.474527   3.901996   -4.02232 H        1 UNL1     0.0233
     94 H         -7.1453   7.526914   -4.362669 H        1 UNL1     0.0233
     95 H         -7.920566   7.573428   -5.953621 H        1 UNL1     0.0233
     96 H         -8.788123   6.883442   -4.562487 H        1 UNL1     0.0233
     97 H         -9.282082   -0.160661   5.7003 H        1 UNL1     0.0280
     98 H         -10.854027   0.484552   5.313162 H        1 UNL1     0.0280
     99 H         -10.177148   -0.850324   4.333534 H        1 UNL1     0.0280
     100 H         -11.896815   1.78643   2.744234 H        1 UNL1     0.2922
     101 H         -1.030261   4.168704   3.345375 H        1 UNL1     0.0236
     102 H         -2.337295   5.331362   3.799191 H        1 UNL1     0.0236
     103 H         -1.146356   5.732663   2.600809 H        1 UNL1     0.0236
     104 H         -0.067233   3.720468   -0.237849 H        1 UNL1     0.2098
     105 H         -1.262928   0.994551   -0.6532 H        1 UNL1     0.0234
     106 H         0.46848   1.31017   -0.959314 H        1 UNL1     0.0234
     107 H         0.0   0.0   0.0 H        1 UNL1     0.0234
     108 H         -0.954959   -0.290104   3.578916 H        1 UNL1     0.2098
     109 H         -2.554553   -0.039848   0.608232 H        1 UNL1     0.0234
     110 H         -2.116865   -0.998558   -0.841632 H        1 UNL1     0.0234
     111 H         -3.494617   -1.430586   0.109153 H        1 UNL1     0.0234
     112 H         0.141746   -4.025934   -2.143286 H        1 UNL1     0.0342
     113 H         -1.312504   -3.754497   -1.118729 H        1 UNL1     0.0342
     114 H         -1.274475   -3.176333   -2.786737 H        1 UNL1     0.0342
     115 H         0.3075   -2.226343   3.865843 H        1 UNL1     0.0234
     116 H         1.86817   -2.626142   3.141098 H        1 UNL1     0.0234
     117 H         1.627449   -1.196464   4.166633 H        1 UNL1     0.0234
     118 H         -7.335795   -1.469228   2.388324 H        1 UNL1     0.0309
     119 H         -5.888065   -1.013999   1.437058 H        1 UNL1     0.0309
     120 H         -5.801318   -2.172361   2.745809 H        1 UNL1     0.0309
     121 H         -0.363513   -0.863057   4.86355 H        1 UNL1     0.0524
     122 H         0.012517   -0.587284   3.157851 H        1 UNL1     0.0524
     123 H         -1.573759   -0.094   3.80139 H        1 UNL1     0.0524
@<TRIPOS>BOND
     1     1     2    1
     2     1    42    1
     3     2     3    2
     4     3     4    1
     5     4     5    2
     6     5     7    1
     7     6    75    1
     8     6    76    1
     9     6    77    1
    10     7     9   am
    11     9    10    1
    12    10    11    2
    13    10    43    1
    14    11    14    1
    15    11    15    1
    16    12    13   ar
    17    12    27   ar
    18    12    43    1
    19    13    14    1
    20    13    30   ar
    21    14    17    2
    22    15    16    1
    23    16    17    1
    24    16    18    1
    25    16    22    1
    26    18    19    1
    27    19    20    1
    28    20    21    1
    29    21    22    1
    30    23    24    1
    31    23    88    1
    32    23    89    1
    33    24    25    1
    34    24    26    1
    35    24    90    1
    36    25    91    1
    37    25    92    1
    38    25    93    1
    39    26    94    1
    40    26    95    1
    41    26    96    1
    42    27    28   ar
    43    28    29   ar
    44    29    30   ar
    45    29    31    1
    46    30    33    1
    47    31    32    1
    48    32    33    1
    49    32    35    1
    50    34    97    1
    51    34    98    1
    52    34    99    1
    53    35    61    1
    54    36    37    1
    55    36    60    1
    56    37    38    1
    57    38    39    1
    58    39    40    1
    59    40    41    1
    60    41    42    1
    61    45   100    1
    62    47   101    1
    63    47   102    1
    64    47   103    1
    65    48   104    1
    66    49   105    1
    67    49   106    1
    68    49   107    1
    69    50   108    1
    70    51    59    1
    71    52   109    1
    72    52   110    1
    73    52   111    1
    74    53    54    1
    75    54    55    2
    76    54    56    1
    77    56   112    1
    78    56   113    1
    79    56   114    1
    80    57   115    1
    81    57   116    1
    82    57   117    1
    83    58   118    1
    84    58   119    1
    85    58   120    1
    86    59   121    1
    87    59   122    1
    88    59   123    1
    89    60    61    2
    90     1    47    1
    91     1    62    1
    92     2    63    1
    93     3    64    1
    94     4    65    1
    95     5     6    1
    96     7     8    2
    97     9    78    1
    98    15    79    1
    99    18    80    1
   100    18    81    1
   101    19    82    1
   102    19    83    1
   103    20    23    1
   104    21    84    1
   105    21    85    1
   106    22    86    1
   107    22    87    1
   108    27    45    1
   109    28    34    1
   110    32    58    1
   111    33    46    2
   112    36    51    1
   113    36    66    1
   114    37    52    1
   115    37    67    1
   116    38    53    1
   117    38    68    1
   118    42    48    1
   119    42    72    1
   120    43    44    2
   121    60    73    1
   122    61    74    1
   123    39    69    1
   124    39    57    1
   125    40    70    1
   126    40    50    1
   127    41    71    1
   128    41    49    1
