@<TRIPOS>MOLECULE
*****
 123 128 0 0 0
SMALL
GASTEIGER

@<TRIPOS>ATOM
     1 C         1.078315   0.297453   3.972036 C.3        1 UNL1     0.0009
     2 C         0.045971   -0.087449   5.463061 C.2        1 UNL1     -0.0787
     3 C         -0.840202   0.345332   6.522987 C.2        1 UNL1     -0.0649
     4 C         -1.651394   -0.614051   7.657848 C.2        1 UNL1     -0.0542
     5 C         -2.73245   -0.667611   8.571919 C.2        1 UNL1     0.0115
     6 C         -3.82425   0.182472   9.278074 C.3        1 UNL1     -0.0348
     7 C         -3.242432   -2.099254   9.088936 C.2        1 UNL1     0.2441
     8 O         -2.959916   -2.547889   10.191404 O.2        1 UNL1     -0.2702
     9 N         -4.245624   -2.687519   8.299187 N.am        1 UNL1     -0.2772
     10 C         -3.685015   -3.434435   7.288664 C.2        1 UNL1     0.1049
     11 C         -3.316485   -2.769221   6.208897 C.2        1 UNL1     0.0801
     12 C         -1.960259   -5.190419   6.842491 C.ar        1 UNL1     0.0753
     13 C         -1.465049   -4.330667   5.810889 C.ar        1 UNL1     0.0305
     14 C         -2.20949   -3.151425   5.374716 C.2        1 UNL1     0.0924
     15 N         -3.586009   -1.505503   5.838893 N.pl3        1 UNL1     -0.3170
     16 C         -3.095288   -1.326015   4.498285 C.3        1 UNL1     0.1275
     17 N         -1.95508   -2.30752   4.37871 N.2        1 UNL1     -0.2557
     18 C         -4.181934   -1.821539   3.548887 C.3        1 UNL1     0.0016
     19 C         -5.470295   -1.07303   3.851294 C.3        1 UNL1     0.0026
     20 N         -5.234065   0.353609   3.678303 N.3        1 UNL1     -0.3018
     21 C         -4.162562   0.911244   4.506125 C.3        1 UNL1     0.0026
     22 C         -2.877033   0.147873   4.182744 C.3        1 UNL1     0.0016
     23 C         -6.458553   1.12846   3.648653 C.3        1 UNL1     0.0012
     24 C         -6.886959   1.513456   5.073434 C.3        1 UNL1     -0.0339
     25 C         -6.74932   0.327233   6.041931 C.3        1 UNL1     -0.0615
     26 C         -6.092993   2.717942   5.54842 C.3        1 UNL1     -0.0615
     27 C         -1.30686   -6.376373   7.169144 C.ar        1 UNL1     0.1347
     28 C         -0.17673   -6.825802   6.509697 C.ar        1 UNL1     0.0342
     29 C         0.320619   -5.939293   5.530968 C.ar        1 UNL1     0.1435
     30 C         -0.302813   -4.730766   5.217894 C.ar        1 UNL1     0.0774
     31 O         1.349822   -6.283262   4.726336 O.3        1 UNL1     -0.4436
     32 C         1.252205   -5.386765   3.609359 C.3        1 UNL1     0.3143
     33 C         0.482723   -4.18911   4.128716 C.2        1 UNL1     0.2504
     34 C         0.42894   -8.19632   6.631943 C.3        1 UNL1     -0.0327
     35 O         2.578054   -4.933032   3.310185 O.2        1 UNL1     -0.4528
     36 C         2.626112   -4.248615   -0.423091 C.3        1 UNL1     0.0854
     37 C         1.711714   -3.282809   -1.270804 C.3        1 UNL1     0.0236
     38 C         2.504148   -2.203509   -2.153358 C.3        1 UNL1     0.1131
     39 C         3.617656   -1.303979   -1.480144 C.3        1 UNL1     0.0200
     40 C         3.355564   -0.612968   0.015265 C.3        1 UNL1     0.0661
     41 C         1.985878   0.277447   0.472135 C.3        1 UNL1     0.0091
     42 C         1.156425   0.432882   2.101016 C.3        1 UNL1     0.0661
     43 C         -3.242588   -4.821946   7.492198 C.2        1 UNL1     0.2131
     44 O         -3.956588   -5.619478   8.072615 O.2        1 UNL1     -0.2851
     45 O         -1.828661   -7.133084   8.216306 O.3        1 UNL1     -0.5056
     46 O         0.525278   -3.041758   3.744496 O.2        1 UNL1     -0.2836
     47 C         2.391149   1.010186   4.394483 C.3        1 UNL1     -0.0566
     48 O         1.06039   1.911405   2.038859 O.3        1 UNL1     -0.3909
     49 C         0.899101   0.063873   -0.557815 C.3        1 UNL1     -0.0577
     50 O         3.719642   -1.504331   1.049984 O.3        1 UNL1     -0.3910
     51 O         4.00119   -3.93826   -0.406576 O.3        1 UNL1     -0.3753
     52 C         0.38502   -2.931213   -0.521664 C.3        1 UNL1     -0.0564
     53 O         1.654954   -1.543662   -3.200161 O.3        1 UNL1     -0.4608
     54 C         1.922261   -0.340004   -3.798229 C.2        1 UNL1     0.3042
     55 O         2.303823   0.695702   -3.254575 O.2        1 UNL1     -0.2512
     56 C         1.767811   -0.36339   -5.292322 C.3        1 UNL1     0.0332
     57 C         5.029253   -2.010588   -1.737572 C.3        1 UNL1     -0.0567
     58 C         0.393818   -6.1074   2.543813 C.3        1 UNL1     0.0210
     59 C         4.85634   -5.023421   -0.050192 C.3        1 UNL1     0.0372
     60 C         2.209069   -4.42606   0.994565 C.2        1 UNL1     -0.0208
     61 C         2.93208   -4.422309   2.115274 C.2        1 UNL1     0.0882
     62 H         1.315707   -0.769658   3.884679 H        1 UNL1     0.0365
     63 H         0.268962   -1.148042   5.596805 H        1 UNL1     0.0576
     64 H         -1.204549   1.373465   6.580445 H        1 UNL1     0.0615
     65 H         -1.161915   -1.588069   7.573096 H        1 UNL1     0.0622
     66 H         2.504104   -5.232088   -0.898425 H        1 UNL1     0.0645
     67 H         1.285192   -3.935048   -2.052612 H        1 UNL1     0.0362
     68 H         3.046432   -2.881557   -2.829893 H        1 UNL1     0.0741
     69 H         3.798143   -0.443538   -2.110601 H        1 UNL1     0.0359
     70 H         4.155634   0.151851   0.014775 H        1 UNL1     0.0600
     71 H         2.326988   1.300391   0.218785 H        1 UNL1     0.0348
     72 H         2.170748   0.063721   2.311219 H        1 UNL1     0.0602
     73 H         1.18407   -4.701165   1.025266 H        1 UNL1     0.0628
     74 H         3.971168   -4.097286   2.177673 H        1 UNL1     0.1022
     75 H         -3.637871   1.271726   9.117379 H        1 UNL1     0.0279
     76 H         -4.842511   0.062956   8.914854 H        1 UNL1     0.0279
     77 H         -3.77393   0.113372   10.374611 H        1 UNL1     0.0279
     78 H         -4.810064   -1.959973   7.86541 H        1 UNL1     0.1553
     79 H         -4.338924   -0.96224   6.219573 H        1 UNL1     0.1484
     80 H         -3.855916   -1.656189   2.514896 H        1 UNL1     0.0317
     81 H         -4.336621   -2.90013   3.660085 H        1 UNL1     0.0317
     82 H         -5.841017   -1.293004   4.863267 H        1 UNL1     0.0428
     83 H         -6.232064   -1.443001   3.16436 H        1 UNL1     0.0428
     84 H         -3.952109   1.965232   4.299652 H        1 UNL1     0.0428
     85 H         -4.420488   0.894914   5.574079 H        1 UNL1     0.0428
     86 H         -2.093537   0.666503   4.70346 H        1 UNL1     0.0317
     87 H         -2.614698   0.286141   3.126733 H        1 UNL1     0.0317
     88 H         -6.266996   2.04828   3.080734 H        1 UNL1     0.0429
     89 H         -7.259274   0.588993   3.126547 H        1 UNL1     0.0429
     90 H         -7.935798   1.832748   5.059215 H        1 UNL1     0.0308
     91 H         -6.567498   -0.607338   5.502838 H        1 UNL1     0.0233
     92 H         -5.933832   0.498118   6.748603 H        1 UNL1     0.0233
     93 H         -7.651382   0.175192   6.646912 H        1 UNL1     0.0233
     94 H         -5.379385   2.418168   6.323491 H        1 UNL1     0.0233
     95 H         -5.526791   3.144282   4.715586 H        1 UNL1     0.0233
     96 H         -6.748079   3.489936   5.961768 H        1 UNL1     0.0233
     97 H         0.896116   -8.350458   7.600043 H        1 UNL1     0.0280
     98 H         -0.32167   -8.991025   6.530529 H        1 UNL1     0.0280
     99 H         1.196505   -8.33146   5.852407 H        1 UNL1     0.0280
     100 H         -2.490354   -7.751495   7.960663 H        1 UNL1     0.2922
     101 H         2.956233   1.295854   3.507505 H        1 UNL1     0.0236
     102 H         2.991235   0.425632   5.091029 H        1 UNL1     0.0236
     103 H         2.196146   1.959931   4.919983 H        1 UNL1     0.0236
     104 H         1.878057   2.276788   2.429867 H        1 UNL1     0.2098
     105 H         0.790792   0.876665   -1.271572 H        1 UNL1     0.0234
     106 H         0.946866   -0.892376   -1.078616 H        1 UNL1     0.0234
     107 H         0.0   -0.0   0.0 H        1 UNL1     0.0234
     108 H         3.175613   -2.308542   0.944886 H        1 UNL1     0.2098
     109 H         0.570091   -2.438999   0.443316 H        1 UNL1     0.0234
     110 H         -0.297989   -2.318917   -1.120276 H        1 UNL1     0.0234
     111 H         -0.19915   -3.831501   -0.288913 H        1 UNL1     0.0234
     112 H         2.690862   -0.724033   -5.756282 H        1 UNL1     0.0342
     113 H         0.913317   -0.960911   -5.60641 H        1 UNL1     0.0342
     114 H         1.598227   0.666357   -5.635875 H        1 UNL1     0.0342
     115 H         5.185994   -2.234174   -2.801823 H        1 UNL1     0.0234
     116 H         5.886511   -1.427804   -1.394759 H        1 UNL1     0.0234
     117 H         5.103804   -3.018723   -1.2948 H        1 UNL1     0.0234
     118 H         -0.270569   -5.409236   2.005145 H        1 UNL1     0.0309
     119 H         0.991531   -6.666065   1.816603 H        1 UNL1     0.0309
     120 H         -0.302302   -6.830142   2.983322 H        1 UNL1     0.0309
     121 H         5.752068   -4.601596   0.404882 H        1 UNL1     0.0524
     122 H         4.392578   -5.695615   0.690832 H        1 UNL1     0.0524
     123 H         5.119992   -5.599625   -0.932559 H        1 UNL1     0.0524
@<TRIPOS>BOND
     1     1     2    1
     2     1    42    1
     3     2     3    2
     4     3     4    1
     5     4     5    2
     6     5     7    1
     7     6    75    1
     8     6    76    1
     9     6    77    1
    10     7     9   am
    11     9    10    1
    12    10    11    2
    13    10    43    1
    14    11    14    1
    15    11    15    1
    16    12    13   ar
    17    12    27   ar
    18    12    43    1
    19    13    14    1
    20    13    30   ar
    21    14    17    2
    22    15    16    1
    23    16    17    1
    24    16    18    1
    25    16    22    1
    26    18    19    1
    27    19    20    1
    28    20    21    1
    29    21    22    1
    30    23    24    1
    31    23    88    1
    32    23    89    1
    33    24    25    1
    34    24    26    1
    35    24    90    1
    36    25    91    1
    37    25    92    1
    38    25    93    1
    39    26    94    1
    40    26    95    1
    41    26    96    1
    42    27    28   ar
    43    28    29   ar
    44    29    30   ar
    45    29    31    1
    46    30    33    1
    47    31    32    1
    48    32    33    1
    49    32    35    1
    50    34    97    1
    51    34    98    1
    52    34    99    1
    53    35    61    1
    54    36    37    1
    55    36    60    1
    56    37    38    1
    57    38    39    1
    58    39    40    1
    59    40    41    1
    60    41    42    1
    61    45   100    1
    62    47   101    1
    63    47   102    1
    64    47   103    1
    65    48   104    1
    66    49   105    1
    67    49   106    1
    68    49   107    1
    69    50   108    1
    70    51    59    1
    71    52   109    1
    72    52   110    1
    73    52   111    1
    74    53    54    1
    75    54    55    2
    76    54    56    1
    77    56   112    1
    78    56   113    1
    79    56   114    1
    80    57   115    1
    81    57   116    1
    82    57   117    1
    83    58   118    1
    84    58   119    1
    85    58   120    1
    86    59   121    1
    87    59   122    1
    88    59   123    1
    89    60    61    2
    90     1    47    1
    91     1    62    1
    92     2    63    1
    93     3    64    1
    94     4    65    1
    95     5     6    1
    96     7     8    2
    97     9    78    1
    98    15    79    1
    99    18    80    1
   100    18    81    1
   101    19    82    1
   102    19    83    1
   103    20    23    1
   104    21    84    1
   105    21    85    1
   106    22    86    1
   107    22    87    1
   108    27    45    1
   109    28    34    1
   110    32    58    1
   111    33    46    2
   112    36    51    1
   113    36    66    1
   114    37    52    1
   115    37    67    1
   116    38    53    1
   117    38    68    1
   118    42    48    1
   119    42    72    1
   120    43    44    2
   121    60    73    1
   122    61    74    1
   123    39    69    1
   124    39    57    1
   125    40    70    1
   126    40    50    1
   127    41    71    1
   128    41    49    1
