@<TRIPOS>MOLECULE
*****
 123 128 0 0 0
SMALL
GASTEIGER

@<TRIPOS>ATOM
     1 C         1.518272   -2.703577   -3.035186 C.3        1 UNL1     0.0009
     2 C         2.485993   -2.291835   -4.561954 C.2        1 UNL1     -0.0787
     3 C         2.566841   -2.166007   -6.001981 C.2        1 UNL1     -0.0649
     4 C         3.850187   -1.556611   -6.922859 C.2        1 UNL1     -0.0542
     5 C         4.223989   -1.012291   -8.17628 C.2        1 UNL1     0.0115
     6 C         3.736763   -0.749577   -9.627802 C.3        1 UNL1     -0.0348
     7 C         5.608964   -0.208962   -8.292452 C.2        1 UNL1     0.2441
     8 O         6.620438   -0.693693   -8.7808 O.2        1 UNL1     -0.2702
     9 N         5.513257   1.169997   -8.036598 N.am        1 UNL1     -0.2772
     10 C         5.668834   1.420974   -6.692675 C.2        1 UNL1     0.1049
     11 C         4.590539   1.273818   -5.944447 C.2        1 UNL1     0.0801
     12 C         7.14259   0.910282   -4.737024 C.ar        1 UNL1     0.0753
     13 C         5.949069   0.559852   -4.028987 C.ar        1 UNL1     0.0305
     14 C         4.624094   0.856393   -4.568944 C.2        1 UNL1     0.0924
     15 N         3.304448   1.120041   -6.303404 N.pl3        1 UNL1     -0.3170
     16 C         2.504914   1.177063   -5.10852 C.3        1 UNL1     0.1275
     17 N         3.426029   0.695647   -4.014211 N.2        1 UNL1     -0.2557
     18 C         2.23326   2.649608   -4.816086 C.3        1 UNL1     0.0016
     19 C         1.581034   3.275896   -6.03836 C.3        1 UNL1     0.0026
     20 N         0.344638   2.562103   -6.3262 N.3        1 UNL1     -0.3018
     21 C         0.496763   1.124675   -6.560776 C.3        1 UNL1     0.0026
     22 C         1.14947   0.515185   -5.318846 C.3        1 UNL1     0.0016
     23 C         -0.499502   3.25725   -7.277432 C.3        1 UNL1     0.0012
     24 C         -0.345384   2.648202   -8.679953 C.3        1 UNL1     -0.0339
     25 C         -0.144672   3.736962   -9.746899 C.3        1 UNL1     -0.0615
     26 C         0.791416   1.641029   -8.688307 C.3        1 UNL1     -0.0615
     27 C         8.3998   0.734668   -4.163702 C.ar        1 UNL1     0.1347
     28 C         8.587141   0.256544   -2.879041 C.ar        1 UNL1     0.0342
     29 C         7.400491   -0.127715   -2.219217 C.ar        1 UNL1     0.1435
     30 C         6.136581   0.008626   -2.794684 C.ar        1 UNL1     0.0774
     31 O         7.406533   -0.508942   -0.923209 O.3        1 UNL1     -0.4436
     32 C         6.04547   -0.354855   -0.493514 C.3        1 UNL1     0.3143
     33 C         5.219238   -0.425445   -1.761809 C.2        1 UNL1     0.2504
     34 C         9.878777   0.27754   -2.110057 C.3        1 UNL1     -0.0327
     35 O         5.711744   -1.509537   0.286606 O.2        1 UNL1     -0.4528
     36 C         3.130504   -0.346658   2.815044 C.3        1 UNL1     0.0854
     37 C         1.732821   0.340945   2.567643 C.3        1 UNL1     0.0236
     38 C         0.48423   -0.402945   3.245428 C.3        1 UNL1     0.1131
     39 C         0.276496   -1.954461   3.017576 C.3        1 UNL1     0.0200
     40 C         0.475655   -2.619799   1.500969 C.3        1 UNL1     0.0661
     41 C         -0.222602   -2.046904   0.065059 C.3        1 UNL1     0.0091
     42 C         0.40444   -2.079328   -1.65865 C.3        1 UNL1     0.0661
     43 C         6.993526   1.550409   -6.067542 C.2        1 UNL1     0.2131
     44 O         7.857582   2.233865   -6.586224 O.2        1 UNL1     -0.2851
     45 O         9.512529   1.058152   -4.937414 O.3        1 UNL1     -0.5056
     46 O         4.06946   -0.781224   -1.893278 O.2        1 UNL1     -0.2836
     47 C         1.359574   -4.241546   -2.895723 C.3        1 UNL1     -0.0566
     48 O         -0.865724   -2.586386   -2.231966 O.3        1 UNL1     -0.3909
     49 C         -0.770911   -0.658628   0.30907 C.3        1 UNL1     -0.0577
     50 O         1.828765   -2.961613   1.277404 O.3        1 UNL1     -0.3910
     51 O         3.093875   -1.608036   3.443546 O.3        1 UNL1     -0.3753
     52 C         1.644782   0.984843   1.145464 C.3        1 UNL1     -0.0564
     53 O         -0.758515   0.436745   3.298632 O.3        1 UNL1     -0.4608
     54 C         -2.040757   -0.032474   3.181932 C.2        1 UNL1     0.3042
     55 O         -2.94887   0.437995   2.497952 O.2        1 UNL1     -0.2512
     56 C         -2.291438   -1.296045   3.954759 C.3        1 UNL1     0.0332
     57 C         0.937373   -2.716912   4.258577 C.3        1 UNL1     -0.0567
     58 C         5.931897   1.069807   0.097222 C.3        1 UNL1     0.0210
     59 C         4.364444   -2.239371   3.594992 C.3        1 UNL1     0.0372
     60 C         3.981399   -0.495537   1.603033 C.2        1 UNL1     -0.0208
     61 C         4.696488   -1.535225   1.171244 C.2        1 UNL1     0.0882
     62 H         2.38913   -2.422741   -2.430661 H        1 UNL1     0.0365
     63 H         3.469071   -2.089829   -4.13158 H        1 UNL1     0.0576
     64 H         1.69252   -2.314838   -6.639569 H        1 UNL1     0.0615
     65 H         4.68419   -1.521795   -6.216665 H        1 UNL1     0.0622
     66 H         3.666887   0.34843   3.476249 H        1 UNL1     0.0645
     67 H         1.782717   1.270668   3.160675 H        1 UNL1     0.0362
     68 H         0.761076   -0.298226   4.305576 H        1 UNL1     0.0741
     69 H         -0.748478   -2.206856   3.254498 H        1 UNL1     0.0359
     70 H         -0.033908   -3.590926   1.650362 H        1 UNL1     0.0600
     71 H         -1.152873   -2.647989   0.049269 H        1 UNL1     0.0348
     72 H         0.978954   -2.841594   -1.112573 H        1 UNL1     0.0602
     73 H         4.068172   0.445672   1.119458 H        1 UNL1     0.0628
     74 H         4.621079   -2.545617   1.574555 H        1 UNL1     0.1022
     75 H         4.528575   -0.229429   -10.218998 H        1 UNL1     0.0279
     76 H         3.528689   -1.627012   -10.235981 H        1 UNL1     0.0279
     77 H         2.91582   -0.019159   -9.675179 H        1 UNL1     0.0279
     78 H         4.590437   1.504602   -8.305894 H        1 UNL1     0.1553
     79 H         2.946354   1.361225   -7.209236 H        1 UNL1     0.1484
     80 H         1.586306   2.725466   -3.933781 H        1 UNL1     0.0317
     81 H         3.161072   3.177462   -4.570756 H        1 UNL1     0.0317
     82 H         2.254338   3.267977   -6.908136 H        1 UNL1     0.0428
     83 H         1.397682   4.326023   -5.808872 H        1 UNL1     0.0428
     84 H         -0.453795   0.599182   -6.695339 H        1 UNL1     0.0428
     85 H         1.049424   0.91799   -7.487687 H        1 UNL1     0.0428
     86 H         1.12324   -0.548013   -5.470204 H        1 UNL1     0.0317
     87 H         0.503197   0.663162   -4.445044 H        1 UNL1     0.0317
     88 H         -1.543178   3.139203   -6.957905 H        1 UNL1     0.0429
     89 H         -0.286086   4.333876   -7.287614 H        1 UNL1     0.0429
     90 H         -1.250415   2.080408   -8.926412 H        1 UNL1     0.0308
     91 H         -0.14321   3.31083   -10.754624 H        1 UNL1     0.0233
     92 H         -0.929492   4.493945   -9.678755 H        1 UNL1     0.0233
     93 H         0.805952   4.2703   -9.625655 H        1 UNL1     0.0233
     94 H         1.724092   2.126719   -8.994994 H        1 UNL1     0.0233
     95 H         0.93763   1.23429   -7.683744 H        1 UNL1     0.0233
     96 H         0.588654   0.816126   -9.377067 H        1 UNL1     0.0233
     97 H         9.829102   -0.33298   -1.213381 H        1 UNL1     0.0280
     98 H         10.716814   -0.119328   -2.697803 H        1 UNL1     0.0280
     99 H         10.11348   1.31224   -1.81105 H        1 UNL1     0.0280
     100 H         9.311089   1.364302   -5.804199 H        1 UNL1     0.2922
     101 H         0.301811   -4.503813   -2.899005 H        1 UNL1     0.0236
     102 H         1.879356   -4.649293   -2.029379 H        1 UNL1     0.0236
     103 H         1.784494   -4.781627   -3.758247 H        1 UNL1     0.0236
     104 H         -1.436853   -1.814248   -2.412477 H        1 UNL1     0.2098
     105 H         -1.66236   -0.420408   -0.265719 H        1 UNL1     0.0234
     106 H         -0.919469   -0.405707   1.358779 H        1 UNL1     0.0234
     107 H         0.0   0.0   0.0 H        1 UNL1     0.0234
     108 H         1.888836   -3.334259   0.376685 H        1 UNL1     0.2098
     109 H         0.607385   1.184573   0.842763 H        1 UNL1     0.0234
     110 H         2.237088   1.901305   1.050526 H        1 UNL1     0.0234
     111 H         2.056796   0.320508   0.374199 H        1 UNL1     0.0234
     112 H         -2.809245   -1.063587   4.890272 H        1 UNL1     0.0342
     113 H         -2.847475   -2.028982   3.372119 H        1 UNL1     0.0342
     114 H         -1.319667   -1.741055   4.209298 H        1 UNL1     0.0342
     115 H         0.896188   -3.808052   4.136488 H        1 UNL1     0.0234
     116 H         1.978983   -2.446156   4.442393 H        1 UNL1     0.0234
     117 H         0.380074   -2.586887   5.202215 H        1 UNL1     0.0234
     118 H         4.895264   1.448777   0.069323 H        1 UNL1     0.0309
     119 H         6.312151   1.141909   1.121141 H        1 UNL1     0.0309
     120 H         6.487963   1.812145   -0.485729 H        1 UNL1     0.0309
     121 H         4.221785   -3.122259   4.217498 H        1 UNL1     0.0524
     122 H         4.781634   -2.576429   2.631466 H        1 UNL1     0.0524
     123 H         5.068579   -1.558891   4.06535 H        1 UNL1     0.0524
@<TRIPOS>BOND
     1     1     2    1
     2     1    42    1
     3     2     3    2
     4     3     4    1
     5     4     5    2
     6     5     7    1
     7     6    75    1
     8     6    76    1
     9     6    77    1
    10     7     9   am
    11     9    10    1
    12    10    11    2
    13    10    43    1
    14    11    14    1
    15    11    15    1
    16    12    13   ar
    17    12    27   ar
    18    12    43    1
    19    13    14    1
    20    13    30   ar
    21    14    17    2
    22    15    16    1
    23    16    17    1
    24    16    18    1
    25    16    22    1
    26    18    19    1
    27    19    20    1
    28    20    21    1
    29    21    22    1
    30    23    24    1
    31    23    88    1
    32    23    89    1
    33    24    25    1
    34    24    26    1
    35    24    90    1
    36    25    91    1
    37    25    92    1
    38    25    93    1
    39    26    94    1
    40    26    95    1
    41    26    96    1
    42    27    28   ar
    43    28    29   ar
    44    29    30   ar
    45    29    31    1
    46    30    33    1
    47    31    32    1
    48    32    33    1
    49    32    35    1
    50    34    97    1
    51    34    98    1
    52    34    99    1
    53    35    61    1
    54    36    37    1
    55    36    60    1
    56    37    38    1
    57    38    39    1
    58    39    40    1
    59    40    41    1
    60    41    42    1
    61    45   100    1
    62    47   101    1
    63    47   102    1
    64    47   103    1
    65    48   104    1
    66    49   105    1
    67    49   106    1
    68    49   107    1
    69    50   108    1
    70    51    59    1
    71    52   109    1
    72    52   110    1
    73    52   111    1
    74    53    54    1
    75    54    55    2
    76    54    56    1
    77    56   112    1
    78    56   113    1
    79    56   114    1
    80    57   115    1
    81    57   116    1
    82    57   117    1
    83    58   118    1
    84    58   119    1
    85    58   120    1
    86    59   121    1
    87    59   122    1
    88    59   123    1
    89    60    61    2
    90     1    47    1
    91     1    62    1
    92     2    63    1
    93     3    64    1
    94     4    65    1
    95     5     6    1
    96     7     8    2
    97     9    78    1
    98    15    79    1
    99    18    80    1
   100    18    81    1
   101    19    82    1
   102    19    83    1
   103    20    23    1
   104    21    84    1
   105    21    85    1
   106    22    86    1
   107    22    87    1
   108    27    45    1
   109    28    34    1
   110    32    58    1
   111    33    46    2
   112    36    51    1
   113    36    66    1
   114    37    52    1
   115    37    67    1
   116    38    53    1
   117    38    68    1
   118    42    48    1
   119    42    72    1
   120    43    44    2
   121    60    73    1
   122    61    74    1
   123    39    69    1
   124    39    57    1
   125    40    70    1
   126    40    50    1
   127    41    71    1
   128    41    49    1
