@<TRIPOS>MOLECULE
*****
 123 128 0 0 0
SMALL
GASTEIGER

@<TRIPOS>ATOM
     1 C         0.808331   -2.749927   -4.298801 C.3        1 UNL1     0.0009
     2 C         -0.183538   -3.577872   -5.628365 C.2        1 UNL1     -0.0787
     3 C         -0.606956   -4.779827   -6.315438 C.2        1 UNL1     -0.0649
     4 C         -1.76578   -4.924287   -7.54125 C.2        1 UNL1     -0.0542
     5 C         -2.63506   -5.814984   -8.218074 C.2        1 UNL1     0.0115
     6 C         -3.003771   -7.312588   -8.40397 C.3        1 UNL1     -0.0348
     7 C         -3.84943   -5.212234   -9.077717 C.2        1 UNL1     0.2441
     8 O         -3.822881   -5.126546   -10.297749 O.2        1 UNL1     -0.2702
     9 N         -5.04547   -5.031736   -8.361434 N.am        1 UNL1     -0.2772
     10 C         -5.066152   -3.791386   -7.766098 C.2        1 UNL1     0.1049
     11 C         -4.435316   -3.689962   -6.610251 C.2        1 UNL1     0.0801
     12 C         -4.688547   -1.362337   -8.22921 C.ar        1 UNL1     0.0753
     13 C         -3.840063   -1.354887   -7.076549 C.ar        1 UNL1     0.0305
     14 C         -3.791463   -2.487684   -6.154887 C.2        1 UNL1     0.0924
     15 N         -3.947022   -4.649417   -5.80555 N.pl3        1 UNL1     -0.3170
     16 C         -3.508309   -4.020561   -4.588043 C.3        1 UNL1     0.1275
     17 N         -3.14704   -2.613823   -4.998283 N.2        1 UNL1     -0.2557
     18 C         -4.726977   -3.896682   -3.678535 C.3        1 UNL1     0.0016
     19 C         -5.334293   -5.277483   -3.488413 C.3        1 UNL1     0.0026
     20 N         -4.329647   -6.153649   -2.901859 N.3        1 UNL1     -0.3018
     21 C         -3.093563   -6.287652   -3.675492 C.3        1 UNL1     0.0026
     22 C         -2.498124   -4.88954   -3.850513 C.3        1 UNL1     0.0016
     23 C         -4.88582   -7.396807   -2.406001 C.3        1 UNL1     0.0012
     24 C         -6.03853   -7.868213   -3.306441 C.3        1 UNL1     -0.0339
     25 C         -5.588026   -8.99133   -4.254972 C.3        1 UNL1     -0.0615
     26 C         -7.222156   -8.295818   -2.456169 C.3        1 UNL1     -0.0615
     27 C         -4.820702   -0.234219   -9.035437 C.ar        1 UNL1     0.1347
     28 C         -4.188086   0.966834   -8.768378 C.ar        1 UNL1     0.0342
     29 C         -3.319898   0.935926   -7.656417 C.ar        1 UNL1     0.1435
     30 C         -3.149629   -0.197647   -6.860652 C.ar        1 UNL1     0.0774
     31 O         -2.716166   2.055892   -7.202336 O.3        1 UNL1     -0.4436
     32 C         -2.334936   1.741367   -5.854519 C.3        1 UNL1     0.3143
     33 C         -2.249671   0.229109   -5.809595 C.2        1 UNL1     0.2504
     34 C         -4.475279   2.282383   -9.436921 C.3        1 UNL1     -0.0327
     35 O         -1.00572   2.240116   -5.660392 O.2        1 UNL1     -0.4528
     36 C         -0.754837   3.128182   -1.978479 C.3        1 UNL1     0.0854
     37 C         -0.987798   2.213558   -0.714867 C.3        1 UNL1     0.0236
     38 C         0.236929   2.164875   0.31926 C.3        1 UNL1     0.1131
     39 C         1.696334   1.854539   -0.206192 C.3        1 UNL1     0.0200
     40 C         1.952321   0.641629   -1.322327 C.3        1 UNL1     0.0661
     41 C         1.367677   -0.947163   -1.214883 C.3        1 UNL1     0.0091
     42 C         0.858862   -2.119505   -2.530985 C.3        1 UNL1     0.0661
     43 C         -5.492491   -2.582762   -8.487081 C.2        1 UNL1     0.2131
     44 O         -6.50589   -2.590974   -9.162131 O.2        1 UNL1     -0.2851
     45 O         -5.630915   -0.339279   -10.164133 O.3        1 UNL1     -0.5056
     46 O         -1.574055   -0.466313   -5.084485 O.2        1 UNL1     -0.2836
     47 C         2.31095   -2.718284   -4.687537 C.3        1 UNL1     -0.0566
     48 O         1.627339   -3.258032   -1.972132 O.3        1 UNL1     -0.3909
     49 C         0.307062   -1.005103   -0.138207 C.3        1 UNL1     -0.0577
     50 O         1.787683   1.129066   -2.63877 O.3        1 UNL1     -0.3910
     51 O         0.547542   3.645241   -2.133041 O.3        1 UNL1     -0.3753
     52 C         -1.832839   0.944783   -1.062813 C.3        1 UNL1     -0.0564
     53 O         -0.128354   1.588825   1.65607 O.3        1 UNL1     -0.4608
     54 C         -0.112337   2.268437   2.845944 C.2        1 UNL1     0.3042
     55 O         0.873427   2.664492   3.466627 O.2        1 UNL1     -0.2512
     56 C         -1.481762   2.585368   3.375983 C.3        1 UNL1     0.0332
     57 C         2.430587   3.255098   -0.445939 C.3        1 UNL1     -0.0567
     58 C         -3.502226   2.202281   -4.950902 C.3        1 UNL1     0.0210
     59 C         1.594019   2.766001   -1.723543 C.3        1 UNL1     0.0372
     60 C         -1.128442   2.509919   -3.279759 C.2        1 UNL1     -0.0208
     61 C         -0.48115   2.491811   -4.445705 C.2        1 UNL1     0.0882
     62 H         0.384537   -1.787124   -4.608836 H        1 UNL1     0.0365
     63 H         -0.60458   -2.709297   -6.139022 H        1 UNL1     0.0576
     64 H         -0.310722   -5.772177   -5.96817 H        1 UNL1     0.0615
     65 H         -1.930026   -3.89368   -7.867371 H        1 UNL1     0.0622
     66 H         -1.443003   3.973594   -1.83794 H        1 UNL1     0.0645
     67 H         -1.749203   2.756083   -0.127935 H        1 UNL1     0.0362
     68 H         0.257134   3.220518   0.630277 H        1 UNL1     0.0741
     69 H         2.307686   1.540748   0.629388 H        1 UNL1     0.0359
     70 H         3.04546   0.508114   -1.2115 H        1 UNL1     0.0600
     71 H         2.222009   -1.433386   -0.704334 H        1 UNL1     0.0348
     72 H         1.485382   -1.362559   -3.024767 H        1 UNL1     0.0602
     73 H         -2.122313   2.141471   -3.218815 H        1 UNL1     0.0628
     74 H         0.557459   2.796288   -4.579205 H        1 UNL1     0.1022
     75 H         -3.628241   -7.67142   -7.550559 H        1 UNL1     0.0279
     76 H         -3.621539   -7.556821   -9.265238 H        1 UNL1     0.0279
     77 H         -2.131163   -7.977881   -8.32887 H        1 UNL1     0.0279
     78 H         -5.109392   -5.727781   -7.621493 H        1 UNL1     0.1553
     79 H         -4.231162   -5.610821   -5.849134 H        1 UNL1     0.1484
     80 H         -4.415988   -3.460676   -2.721481 H        1 UNL1     0.0317
     81 H         -5.46795   -3.213911   -4.107991 H        1 UNL1     0.0317
     82 H         -5.714269   -5.688995   -4.435085 H        1 UNL1     0.0428
     83 H         -6.202644   -5.165825   -2.838374 H        1 UNL1     0.0428
     84 H         -2.325824   -6.886236   -3.175407 H        1 UNL1     0.0428
     85 H         -3.261614   -6.810475   -4.627192 H        1 UNL1     0.0428
     86 H         -1.534665   -5.03951   -4.301338 H        1 UNL1     0.0317
     87 H         -2.255793   -4.460123   -2.870731 H        1 UNL1     0.0317
     88 H         -4.093935   -8.156965   -2.425296 H        1 UNL1     0.0429
     89 H         -5.212708   -7.299333   -1.362729 H        1 UNL1     0.0429
     90 H         -6.392296   -7.023216   -3.908972 H        1 UNL1     0.0308
     91 H         -4.574009   -8.815422   -4.626359 H        1 UNL1     0.0233
     92 H         -5.62225   -9.959859   -3.750603 H        1 UNL1     0.0233
     93 H         -6.237644   -9.081218   -5.134035 H        1 UNL1     0.0233
     94 H         -7.007526   -8.123321   -1.395973 H        1 UNL1     0.0233
     95 H         -8.104851   -7.707264   -2.721531 H        1 UNL1     0.0233
     96 H         -7.450395   -9.356363   -2.594443 H        1 UNL1     0.0233
     97 H         -5.434636   2.691965   -9.135079 H        1 UNL1     0.0280
     98 H         -3.729091   3.046832   -9.183787 H        1 UNL1     0.0280
     99 H         -4.486566   2.145816   -10.530684 H        1 UNL1     0.0280
     100 H         -5.193149   -0.162304   -10.978175 H        1 UNL1     0.2922
     101 H         2.52071   -3.507468   -5.409233 H        1 UNL1     0.0236
     102 H         2.977414   -2.763445   -3.826858 H        1 UNL1     0.0236
     103 H         2.584909   -1.784516   -5.206399 H        1 UNL1     0.0236
     104 H         1.075889   -3.675585   -1.281825 H        1 UNL1     0.2098
     105 H         -0.57136   -1.587802   -0.404005 H        1 UNL1     0.0234
     106 H         0.672385   -1.299753   0.845483 H        1 UNL1     0.0234
     107 H         0.0   0.0   0.0 H        1 UNL1     0.0234
     108 H         0.829784   1.249981   -2.785667 H        1 UNL1     0.2098
     109 H         -1.430583   0.401908   -1.929524 H        1 UNL1     0.0234
     110 H         -1.943197   0.256229   -0.218148 H        1 UNL1     0.0234
     111 H         -2.865436   1.206827   -1.329311 H        1 UNL1     0.0234
     112 H         -1.640845   3.667969   3.372412 H        1 UNL1     0.0342
     113 H         -2.265077   2.073522   2.818959 H        1 UNL1     0.0342
     114 H         -1.53465   2.240639   4.41787 H        1 UNL1     0.0342
     115 H         2.027012   4.044217   0.203374 H        1 UNL1     0.0234
     116 H         3.510773   3.222399   -0.290442 H        1 UNL1     0.0234
     117 H         2.243195   3.684686   -1.445078 H        1 UNL1     0.0234
     118 H         -3.929401   3.164375   -5.283922 H        1 UNL1     0.0309
     119 H         -4.304531   1.461584   -4.874237 H        1 UNL1     0.0309
     120 H         -3.182162   2.410006   -3.924006 H        1 UNL1     0.0309
     121 H         2.537454   3.200361   -2.053117 H        1 UNL1     0.0524
     122 H         1.64379   2.656852   -0.627347 H        1 UNL1     0.0524
     123 H         1.456872   1.785057   -2.169675 H        1 UNL1     0.0524
@<TRIPOS>BOND
     1     1     2    1
     2     1    42    1
     3     2     3    2
     4     3     4    1
     5     4     5    2
     6     5     7    1
     7     6    75    1
     8     6    76    1
     9     6    77    1
    10     7     9   am
    11     9    10    1
    12    10    11    2
    13    10    43    1
    14    11    14    1
    15    11    15    1
    16    12    13   ar
    17    12    27   ar
    18    12    43    1
    19    13    14    1
    20    13    30   ar
    21    14    17    2
    22    15    16    1
    23    16    17    1
    24    16    18    1
    25    16    22    1
    26    18    19    1
    27    19    20    1
    28    20    21    1
    29    21    22    1
    30    23    24    1
    31    23    88    1
    32    23    89    1
    33    24    25    1
    34    24    26    1
    35    24    90    1
    36    25    91    1
    37    25    92    1
    38    25    93    1
    39    26    94    1
    40    26    95    1
    41    26    96    1
    42    27    28   ar
    43    28    29   ar
    44    29    30   ar
    45    29    31    1
    46    30    33    1
    47    31    32    1
    48    32    33    1
    49    32    35    1
    50    34    97    1
    51    34    98    1
    52    34    99    1
    53    35    61    1
    54    36    37    1
    55    36    60    1
    56    37    38    1
    57    38    39    1
    58    39    40    1
    59    40    41    1
    60    41    42    1
    61    45   100    1
    62    47   101    1
    63    47   102    1
    64    47   103    1
    65    48   104    1
    66    49   105    1
    67    49   106    1
    68    49   107    1
    69    50   108    1
    70    51    59    1
    71    52   109    1
    72    52   110    1
    73    52   111    1
    74    53    54    1
    75    54    55    2
    76    54    56    1
    77    56   112    1
    78    56   113    1
    79    56   114    1
    80    57   115    1
    81    57   116    1
    82    57   117    1
    83    58   118    1
    84    58   119    1
    85    58   120    1
    86    59   121    1
    87    59   122    1
    88    59   123    1
    89    60    61    2
    90     1    47    1
    91     1    62    1
    92     2    63    1
    93     3    64    1
    94     4    65    1
    95     5     6    1
    96     7     8    2
    97     9    78    1
    98    15    79    1
    99    18    80    1
   100    18    81    1
   101    19    82    1
   102    19    83    1
   103    20    23    1
   104    21    84    1
   105    21    85    1
   106    22    86    1
   107    22    87    1
   108    27    45    1
   109    28    34    1
   110    32    58    1
   111    33    46    2
   112    36    51    1
   113    36    66    1
   114    37    52    1
   115    37    67    1
   116    38    53    1
   117    38    68    1
   118    42    48    1
   119    42    72    1
   120    43    44    2
   121    60    73    1
   122    61    74    1
   123    39    69    1
   124    39    57    1
   125    40    70    1
   126    40    50    1
   127    41    71    1
   128    41    49    1
