@<TRIPOS>MOLECULE
*****
 123 128 0 0 0
SMALL
GASTEIGER

@<TRIPOS>ATOM
     1 C         0.210327   2.977513   -2.872569 C.3        1 UNL1     0.0009
     2 C         0.749469   4.73502   -2.632709 C.2        1 UNL1     -0.0787
     3 C         0.425884   6.133124   -2.441283 C.2        1 UNL1     -0.0649
     4 C         1.488612   7.414326   -2.132274 C.2        1 UNL1     -0.0542
     5 C         1.601618   8.732837   -1.62647 C.2        1 UNL1     0.0115
     6 C         0.791377   9.971086   -1.153636 C.3        1 UNL1     -0.0348
     7 C         3.050603   9.283006   -1.208443 C.2        1 UNL1     0.2441
     8 O         3.699877   10.047088   -1.909262 O.2        1 UNL1     -0.2702
     9 N         3.41039   9.038299   0.128278 N.am        1 UNL1     -0.2772
     10 C         4.022914   7.811604   0.243849 C.2        1 UNL1     0.1049
     11 C         3.220442   6.766832   0.337192 C.2        1 UNL1     0.0801
     12 C         5.820588   6.389851   -0.758308 C.ar        1 UNL1     0.0753
     13 C         4.845946   5.343988   -0.827964 C.ar        1 UNL1     0.0305
     14 C         3.551022   5.459169   -0.160914 C.2        1 UNL1     0.0924
     15 N         1.894268   6.712416   0.548918 N.pl3        1 UNL1     -0.3170
     16 C         1.535685   5.331792   0.737465 C.3        1 UNL1     0.1275
     17 N         2.577289   4.561721   -0.036986 N.2        1 UNL1     -0.2557
     18 C         1.770531   5.000406   2.208088 C.3        1 UNL1     0.0016
     19 C         0.97568   5.977412   3.059711 C.3        1 UNL1     0.0026
     20 N         -0.434263   5.85907   2.714624 N.3        1 UNL1     -0.3018
     21 C         -0.75175   6.099569   1.305464 C.3        1 UNL1     0.0026
     22 C         0.053947   5.10434   0.468644 C.3        1 UNL1     0.0016
     23 C         -1.305075   6.520817   3.665634 C.3        1 UNL1     0.0012
     24 C         -1.800185   5.524868   4.726157 C.3        1 UNL1     -0.0339
     25 C         -0.768495   4.413161   4.978706 C.3        1 UNL1     -0.0615
     26 C         -2.153778   6.260788   6.00685 C.3        1 UNL1     -0.0615
     27 C         7.095988   6.224664   -1.293271 C.ar        1 UNL1     0.1347
     28 C         7.523809   5.049234   -1.884357 C.ar        1 UNL1     0.0342
     29 C         6.531916   4.050676   -1.985329 C.ar        1 UNL1     0.1435
     30 C         5.239182   4.215057   -1.486293 C.ar        1 UNL1     0.0774
     31 O         6.823227   2.811018   -2.436319 O.3        1 UNL1     -0.4436
     32 C         5.74747   1.989208   -1.958566 C.3        1 UNL1     0.3143
     33 C         4.592185   2.942652   -1.729491 C.2        1 UNL1     0.2504
     34 C         8.942201   4.712312   -2.251438 C.3        1 UNL1     -0.0327
     35 O         5.36525   1.121065   -3.032571 O.2        1 UNL1     -0.4528
     36 C         4.072536   -2.050941   -1.396919 C.3        1 UNL1     0.0854
     37 C         2.903844   -2.228507   -0.352815 C.3        1 UNL1     0.0236
     38 C         1.763942   -3.270417   -0.785009 C.3        1 UNL1     0.1131
     39 C         1.088381   -3.148606   -2.210157 C.3        1 UNL1     0.0200
     40 C         0.637443   -1.657571   -2.806736 C.3        1 UNL1     0.0661
     41 C         -0.277904   -0.492347   -1.980899 C.3        1 UNL1     0.0091
     42 C         -0.22904   1.339484   -2.066978 C.3        1 UNL1     0.0661
     43 C         5.457624   7.623933   -0.018337 C.2        1 UNL1     0.2131
     44 O         6.276941   8.395651   0.446323 O.2        1 UNL1     -0.2851
     45 O         7.969753   7.30781   -1.22422 O.3        1 UNL1     -0.5056
     46 O         3.404635   2.709215   -1.762451 O.2        1 UNL1     -0.2836
     47 C         -0.30666   2.764918   -4.320847 C.3        1 UNL1     -0.0566
     48 O         -1.699838   1.486794   -2.186008 O.3        1 UNL1     -0.3909
     49 C         -0.333473   -0.863893   -0.515853 C.3        1 UNL1     -0.0577
     50 O         1.717202   -1.038242   -3.476269 O.3        1 UNL1     -0.3910
     51 O         3.888169   -2.68614   -2.641894 O.3        1 UNL1     -0.3753
     52 C         2.570294   -0.888443   0.380616 C.3        1 UNL1     -0.0564
     53 O         0.86803   -3.683701   0.34586 O.3        1 UNL1     -0.4608
     54 C         -0.281834   -4.418733   0.221477 C.2        1 UNL1     0.3042
     55 O         -0.875517   -5.032348   1.107398 O.2        1 UNL1     -0.2512
     56 C         -0.867131   -4.390264   -1.161755 C.3        1 UNL1     0.0332
     57 C         1.860152   -4.14357   -3.196357 C.3        1 UNL1     -0.0567
     58 C         6.20352   1.421182   -0.594419 C.3        1 UNL1     0.0210
     59 C         4.336539   -4.039599   -2.696471 C.3        1 UNL1     0.0372
     60 C         4.448308   -0.64019   -1.686292 C.2        1 UNL1     -0.0208
     61 C         4.69401   -0.031823   -2.847441 C.2        1 UNL1     0.0882
     62 H         1.264127   2.673867   -2.868726 H        1 UNL1     0.0365
     63 H         1.832627   4.629841   -2.723125 H        1 UNL1     0.0576
     64 H         -0.605503   6.469877   -2.315001 H        1 UNL1     0.0615
     65 H         2.472991   6.997621   -2.362139 H        1 UNL1     0.0622
     66 H         4.948515   -2.502308   -0.910119 H        1 UNL1     0.0645
     67 H         3.377152   -2.758852   0.49174 H        1 UNL1     0.0362
     68 H         2.363136   -4.192896   -0.824035 H        1 UNL1     0.0741
     69 H         0.15324   -3.69249   -2.19966 H        1 UNL1     0.0359
     70 H         -0.045351   -1.975283   -3.617854 H        1 UNL1     0.0600
     71 H         -1.295813   -0.773829   -2.314947 H        1 UNL1     0.0348
     72 H         0.25553   0.979667   -2.986238 H        1 UNL1     0.0602
     73 H         4.635915   -0.134155   -0.771973 H        1 UNL1     0.0628
     74 H         4.474157   -0.459387   -3.826262 H        1 UNL1     0.1022
     75 H         1.147109   10.313154   -0.151899 H        1 UNL1     0.0279
     76 H         0.886168   10.871772   -1.756005 H        1 UNL1     0.0279
     77 H         -0.261391   9.734411   -0.940642 H        1 UNL1     0.0279
     78 H         2.574922   9.019487   0.709411 H        1 UNL1     0.1553
     79 H         1.359931   7.470216   0.932529 H        1 UNL1     0.1484
     80 H         1.463037   3.96435   2.39464 H        1 UNL1     0.0317
     81 H         2.835268   5.061133   2.457685 H        1 UNL1     0.0317
     82 H         1.329315   7.010978   2.930881 H        1 UNL1     0.0428
     83 H         1.158928   5.724323   4.104419 H        1 UNL1     0.0428
     84 H         -1.803489   5.926494   1.057068 H        1 UNL1     0.0428
     85 H         -0.57911   7.146609   1.020473 H        1 UNL1     0.0428
     86 H         -0.301261   5.218746   -0.538692 H        1 UNL1     0.0317
     87 H         -0.236082   4.078056   0.725005 H        1 UNL1     0.0317
     88 H         -0.727127   7.307595   4.167878 H        1 UNL1     0.0429
     89 H         -2.14655   7.012495   3.160711 H        1 UNL1     0.0429
     90 H         -2.732282   5.063825   4.378527 H        1 UNL1     0.0308
     91 H         -0.987589   3.523806   4.380252 H        1 UNL1     0.0233
     92 H         0.240308   4.76228   4.746239 H        1 UNL1     0.0233
     93 H         -0.747323   4.093495   6.027611 H        1 UNL1     0.0233
     94 H         -2.47857   5.549428   6.773866 H        1 UNL1     0.0233
     95 H         -1.276077   6.790195   6.388073 H        1 UNL1     0.0233
     96 H         -2.95816   6.983307   5.842824 H        1 UNL1     0.0233
     97 H         9.041565   3.687023   -2.595151 H        1 UNL1     0.0280
     98 H         9.318644   5.341119   -3.068842 H        1 UNL1     0.0280
     99 H         9.59287   4.846489   -1.371824 H        1 UNL1     0.0280
     100 H         7.552419   8.150479   -1.261167 H        1 UNL1     0.2922
     101 H         -0.161157   3.676136   -4.900646 H        1 UNL1     0.0236
     102 H         -1.337616   2.414907   -4.360918 H        1 UNL1     0.0236
     103 H         0.27238   1.99563   -4.858529 H        1 UNL1     0.0236
     104 H         -1.973348   2.209032   -1.58723 H        1 UNL1     0.2098
     105 H         -1.328682   -1.10567   -0.15128 H        1 UNL1     0.0234
     106 H         0.376744   -1.633575   -0.21401 H        1 UNL1     0.0234
     107 H         0.0   0.0   0.0 H        1 UNL1     0.0234
     108 H         1.426061   -0.140644   -3.727909 H        1 UNL1     0.2098
     109 H         2.025358   -1.053184   1.320625 H        1 UNL1     0.0234
     110 H         3.454618   -0.271441   0.573032 H        1 UNL1     0.0234
     111 H         1.923306   -0.243621   -0.228938 H        1 UNL1     0.0234
     112 H         -1.396441   -5.326952   -1.361237 H        1 UNL1     0.0342
     113 H         -1.52079   -3.53241   -1.312285 H        1 UNL1     0.0342
     114 H         -0.04141   -4.310037   -1.882111 H        1 UNL1     0.0342
     115 H         1.532556   -5.184096   -3.065302 H        1 UNL1     0.0234
     116 H         1.749317   -3.895129   -4.253732 H        1 UNL1     0.0234
     117 H         2.93847   -4.230573   -2.978177 H        1 UNL1     0.0234
     118 H         5.906323   0.365813   -0.464509 H        1 UNL1     0.0309
     119 H         7.281849   1.512456   -0.429866 H        1 UNL1     0.0309
     120 H         5.723911   1.924663   0.252097 H        1 UNL1     0.0309
     121 H         5.295085   -4.048727   -3.214606 H        1 UNL1     0.0524
     122 H         4.49746   -4.467799   -1.693083 H        1 UNL1     0.0524
     123 H         3.616103   -4.652967   -3.230179 H        1 UNL1     0.0524
@<TRIPOS>BOND
     1     1     2    1
     2     1    42    1
     3     2     3    2
     4     3     4    1
     5     4     5    2
     6     5     7    1
     7     6    75    1
     8     6    76    1
     9     6    77    1
    10     7     9   am
    11     9    10    1
    12    10    11    2
    13    10    43    1
    14    11    14    1
    15    11    15    1
    16    12    13   ar
    17    12    27   ar
    18    12    43    1
    19    13    14    1
    20    13    30   ar
    21    14    17    2
    22    15    16    1
    23    16    17    1
    24    16    18    1
    25    16    22    1
    26    18    19    1
    27    19    20    1
    28    20    21    1
    29    21    22    1
    30    23    24    1
    31    23    88    1
    32    23    89    1
    33    24    25    1
    34    24    26    1
    35    24    90    1
    36    25    91    1
    37    25    92    1
    38    25    93    1
    39    26    94    1
    40    26    95    1
    41    26    96    1
    42    27    28   ar
    43    28    29   ar
    44    29    30   ar
    45    29    31    1
    46    30    33    1
    47    31    32    1
    48    32    33    1
    49    32    35    1
    50    34    97    1
    51    34    98    1
    52    34    99    1
    53    35    61    1
    54    36    37    1
    55    36    60    1
    56    37    38    1
    57    38    39    1
    58    39    40    1
    59    40    41    1
    60    41    42    1
    61    45   100    1
    62    47   101    1
    63    47   102    1
    64    47   103    1
    65    48   104    1
    66    49   105    1
    67    49   106    1
    68    49   107    1
    69    50   108    1
    70    51    59    1
    71    52   109    1
    72    52   110    1
    73    52   111    1
    74    53    54    1
    75    54    55    2
    76    54    56    1
    77    56   112    1
    78    56   113    1
    79    56   114    1
    80    57   115    1
    81    57   116    1
    82    57   117    1
    83    58   118    1
    84    58   119    1
    85    58   120    1
    86    59   121    1
    87    59   122    1
    88    59   123    1
    89    60    61    2
    90     1    47    1
    91     1    62    1
    92     2    63    1
    93     3    64    1
    94     4    65    1
    95     5     6    1
    96     7     8    2
    97     9    78    1
    98    15    79    1
    99    18    80    1
   100    18    81    1
   101    19    82    1
   102    19    83    1
   103    20    23    1
   104    21    84    1
   105    21    85    1
   106    22    86    1
   107    22    87    1
   108    27    45    1
   109    28    34    1
   110    32    58    1
   111    33    46    2
   112    36    51    1
   113    36    66    1
   114    37    52    1
   115    37    67    1
   116    38    53    1
   117    38    68    1
   118    42    48    1
   119    42    72    1
   120    43    44    2
   121    60    73    1
   122    61    74    1
   123    39    69    1
   124    39    57    1
   125    40    70    1
   126    40    50    1
   127    41    71    1
   128    41    49    1
