@<TRIPOS>MOLECULE
*****
 123 128 0 0 0
SMALL
GASTEIGER

@<TRIPOS>ATOM
     1 C         -1.03144   3.8817   -3.725627 C.3        1 UNL1     0.0009
     2 C         -0.514054   4.63711   -5.337676 C.2        1 UNL1     -0.0787
     3 C         0.150294   5.691131   -6.075055 C.2        1 UNL1     -0.0649
     4 C         0.423922   5.780809   -7.74342 C.2        1 UNL1     -0.0542
     5 C         1.203485   6.383408   -8.761376 C.2        1 UNL1     0.0115
     6 C         2.24077   7.502356   -9.053468 C.3        1 UNL1     -0.0348
     7 C         1.245475   5.701522   -10.214049 C.2        1 UNL1     0.2441
     8 O         0.605657   6.125207   -11.166756 O.2        1 UNL1     -0.2702
     9 N         2.262678   4.746846   -10.387377 N.am        1 UNL1     -0.2772
     10 C         1.825205   3.50249   -9.995563 C.2        1 UNL1     0.1049
     11 C         1.891843   3.242641   -8.702404 C.2        1 UNL1     0.0801
     12 C         -0.070476   1.892076   -10.260696 C.ar        1 UNL1     0.0753
     13 C         -0.093353   1.805115   -8.832227 C.ar        1 UNL1     0.0305
     14 C         0.973515   2.37679   -8.013672 C.2        1 UNL1     0.0924
     15 N         2.512265   3.91422   -7.717221 N.pl3        1 UNL1     -0.3170
     16 C         2.423853   3.120028   -6.520686 C.3        1 UNL1     0.1275
     17 N         1.165519   2.30618   -6.69949 N.2        1 UNL1     -0.2557
     18 C         3.579863   2.124861   -6.552075 C.3        1 UNL1     0.0016
     19 C         4.881792   2.896253   -6.698788 C.3        1 UNL1     0.0026
     20 N         5.010864   3.814029   -5.575375 N.3        1 UNL1     -0.3018
     21 C         3.913035   4.771449   -5.425419 C.3        1 UNL1     0.0026
     22 C         2.615817   3.974908   -5.274942 C.3        1 UNL1     0.0016
     23 C         6.341398   4.37635   -5.456557 C.3        1 UNL1     0.0012
     24 C         6.491354   5.602866   -6.370301 C.3        1 UNL1     -0.0339
     25 C         6.251348   6.911271   -5.599242 C.3        1 UNL1     -0.0615
     26 C         7.854842   5.590312   -7.039272 C.3        1 UNL1     -0.0615
     27 C         -1.02545   1.241863   -11.038747 C.ar        1 UNL1     0.1347
     28 C         -2.023925   0.446311   -10.505648 C.ar        1 UNL1     0.0342
     29 C         -2.056276   0.415015   -9.09528 C.ar        1 UNL1     0.1435
     30 C         -1.128096   1.090535   -8.301948 C.ar        1 UNL1     0.0774
     31 O         -2.900328   -0.401601   -8.427656 O.3        1 UNL1     -0.4436
     32 C         -2.334458   -0.511547   -7.112902 C.3        1 UNL1     0.3143
     33 C         -1.479333   0.728088   -6.944733 C.2        1 UNL1     0.2504
     34 C         -2.922589   -0.477645   -11.279475 C.3        1 UNL1     -0.0327
     35 O         -3.412467   -0.405134   -6.174912 O.2        1 UNL1     -0.4528
     36 C         -2.374573   -2.462933   -3.1589 C.3        1 UNL1     0.0854
     37 C         -1.090416   -2.326057   -2.253512 C.3        1 UNL1     0.0236
     38 C         -1.383601   -2.155336   -0.686144 C.3        1 UNL1     0.1131
     39 C         -2.408368   -1.055222   -0.19434 C.3        1 UNL1     0.0200
     40 C         -2.386143   0.47598   -0.855676 C.3        1 UNL1     0.0661
     41 C         -1.015464   1.457727   -1.042815 C.3        1 UNL1     0.0091
     42 C         -0.607164   2.698316   -2.331083 C.3        1 UNL1     0.0661
     43 C         1.056544   2.624194   -10.890052 C.2        1 UNL1     0.2131
     44 O         1.412361   2.450815   -12.041604 O.2        1 UNL1     -0.2851
     45 O         -0.959085   1.414959   -12.419715 O.3        1 UNL1     -0.5056
     46 O         -1.175014   1.300559   -5.922227 O.2        1 UNL1     -0.2836
     47 C         -2.221895   4.671084   -3.117622 C.3        1 UNL1     -0.0566
     48 O         -0.181094   3.734651   -1.359697 O.3        1 UNL1     -0.3909
     49 C         0.221846   0.612887   -0.835927 C.3        1 UNL1     -0.0577
     50 O         -3.181738   0.529447   -2.022677 O.3        1 UNL1     -0.3910
     51 O         -3.609134   -2.245604   -2.513874 O.3        1 UNL1     -0.3753
     52 C         0.049909   -1.537514   -2.976566 C.3        1 UNL1     -0.0564
     53 O         -0.177295   -2.378685   0.178301 O.3        1 UNL1     -0.4608
     54 C         0.125252   -1.679243   1.317238 C.2        1 UNL1     0.3042
     55 O         0.567596   -0.533758   1.394906 O.2        1 UNL1     -0.2512
     56 C         -0.191073   -2.424582   2.582593 C.3        1 UNL1     0.0332
     57 C         -3.82879   -1.767092   -0.010444 C.3        1 UNL1     -0.0567
     58 C         -1.41345   -1.753625   -7.135564 C.3        1 UNL1     0.0210
     59 C         -4.39135   -3.42052   -2.305124 C.3        1 UNL1     0.0372
     60 C         -2.374545   -1.615583   -4.382484 C.2        1 UNL1     -0.0208
     61 C         -3.336722   -0.856188   -4.908104 C.2        1 UNL1     0.0882
     62 H         -1.464437   3.040752   -4.280633 H        1 UNL1     0.0365
     63 H         -0.987436   3.952493   -6.044556 H        1 UNL1     0.0576
     64 H         0.702147   6.485064   -5.566885 H        1 UNL1     0.0615
     65 H         -0.227466   5.005793   -8.156371 H        1 UNL1     0.0622
     66 H         -2.353147   -3.503278   -3.512835 H        1 UNL1     0.0645
     67 H         -0.633207   -3.330369   -2.283153 H        1 UNL1     0.0362
     68 H         -1.872545   -3.120582   -0.484263 H        1 UNL1     0.0741
     69 H         -2.2346   -0.862438   0.85592 H        1 UNL1     0.0359
     70 H         -2.975526   1.021286   -0.093882 H        1 UNL1     0.0600
     71 H         -1.052571   2.024757   -0.091995 H        1 UNL1     0.0348
     72 H         -1.696836   2.558333   -2.379409 H        1 UNL1     0.0602
     73 H         -1.47453   -1.780029   -4.921167 H        1 UNL1     0.0628
     74 H         -4.262554   -0.591832   -4.396059 H        1 UNL1     0.1022
     75 H         1.74953   8.505138   -9.041445 H        1 UNL1     0.0279
     76 H         3.04037   7.624471   -8.326284 H        1 UNL1     0.0279
     77 H         2.629754   7.46381   -10.081528 H        1 UNL1     0.0279
     78 H         3.061366   4.988349   -9.80441 H        1 UNL1     0.1553
     79 H         3.244918   4.581778   -7.873806 H        1 UNL1     0.1484
     80 H         3.567005   1.532695   -5.629069 H        1 UNL1     0.0317
     81 H         3.464623   1.417227   -7.3801 H        1 UNL1     0.0317
     82 H         4.930531   3.434193   -7.656994 H        1 UNL1     0.0428
     83 H         5.692654   2.16751   -6.720838 H        1 UNL1     0.0428
     84 H         3.994196   5.395109   -4.529723 H        1 UNL1     0.0428
     85 H         3.885373   5.494467   -6.252339 H        1 UNL1     0.0428
     86 H         1.858252   4.697872   -5.035347 H        1 UNL1     0.0317
     87 H         2.662709   3.348863   -4.375517 H        1 UNL1     0.0317
     88 H         6.485466   4.695915   -4.416164 H        1 UNL1     0.0429
     89 H         7.112384   3.625401   -5.672033 H        1 UNL1     0.0429
     90 H         5.758343   5.53704   -7.183058 H        1 UNL1     0.0308
     91 H         6.414552   7.784768   -6.237575 H        1 UNL1     0.0233
     92 H         5.234819   6.94359   -5.200201 H        1 UNL1     0.0233
     93 H         6.921593   7.01722   -4.737627 H        1 UNL1     0.0233
     94 H         8.018351   6.528126   -7.581126 H        1 UNL1     0.0233
     95 H         8.640505   5.4957   -6.284457 H        1 UNL1     0.0233
     96 H         7.944209   4.761871   -7.747556 H        1 UNL1     0.0233
     97 H         -2.509023   -0.728605   -12.251696 H        1 UNL1     0.0280
     98 H         -3.076856   -1.433834   -10.7626 H        1 UNL1     0.0280
     99 H         -3.901863   0.004129   -11.434429 H        1 UNL1     0.0280
     100 H         -0.280164   1.998951   -12.708923 H        1 UNL1     0.2922
     101 H         -1.935495   5.079876   -2.148849 H        1 UNL1     0.0236
     102 H         -3.139179   4.086092   -3.059673 H        1 UNL1     0.0236
     103 H         -2.488269   5.551918   -3.725378 H        1 UNL1     0.0236
     104 H         -0.784351   3.685584   -0.592465 H        1 UNL1     0.2098
     105 H         0.465375   -0.03898   -1.671136 H        1 UNL1     0.0234
     106 H         1.104905   1.168276   -0.520209 H        1 UNL1     0.0234
     107 H         0.0   0.0   0.0 H        1 UNL1     0.0234
     108 H         -2.957361   1.357648   -2.489052 H        1 UNL1     0.2098
     109 H         0.378094   -2.034256   -3.900283 H        1 UNL1     0.0234
     110 H         -0.217114   -0.497849   -3.194603 H        1 UNL1     0.0234
     111 H         0.946816   -1.455831   -2.348209 H        1 UNL1     0.0234
     112 H         0.07354   -3.480218   2.468763 H        1 UNL1     0.0342
     113 H         0.303997   -1.988936   3.449174 H        1 UNL1     0.0342
     114 H         -1.274765   -2.365594   2.753754 H        1 UNL1     0.0342
     115 H         -4.40518   -1.322058   0.8123 H        1 UNL1     0.0234
     116 H         -4.457088   -1.741442   -0.902987 H        1 UNL1     0.0234
     117 H         -3.755062   -2.81618   0.324101 H        1 UNL1     0.0234
     118 H         -1.95347   -2.66455   -7.447975 H        1 UNL1     0.0309
     119 H         -0.532372   -1.6236   -7.771959 H        1 UNL1     0.0309
     120 H         -1.03374   -2.013569   -6.141403 H        1 UNL1     0.0309
     121 H         -4.652248   -3.821176   -3.284289 H        1 UNL1     0.0524
     122 H         -3.834293   -4.203288   -1.76383 H        1 UNL1     0.0524
     123 H         -5.291476   -3.178552   -1.747165 H        1 UNL1     0.0524
@<TRIPOS>BOND
     1     1     2    1
     2     1    42    1
     3     2     3    2
     4     3     4    1
     5     4     5    2
     6     5     7    1
     7     6    75    1
     8     6    76    1
     9     6    77    1
    10     7     9   am
    11     9    10    1
    12    10    11    2
    13    10    43    1
    14    11    14    1
    15    11    15    1
    16    12    13   ar
    17    12    27   ar
    18    12    43    1
    19    13    14    1
    20    13    30   ar
    21    14    17    2
    22    15    16    1
    23    16    17    1
    24    16    18    1
    25    16    22    1
    26    18    19    1
    27    19    20    1
    28    20    21    1
    29    21    22    1
    30    23    24    1
    31    23    88    1
    32    23    89    1
    33    24    25    1
    34    24    26    1
    35    24    90    1
    36    25    91    1
    37    25    92    1
    38    25    93    1
    39    26    94    1
    40    26    95    1
    41    26    96    1
    42    27    28   ar
    43    28    29   ar
    44    29    30   ar
    45    29    31    1
    46    30    33    1
    47    31    32    1
    48    32    33    1
    49    32    35    1
    50    34    97    1
    51    34    98    1
    52    34    99    1
    53    35    61    1
    54    36    37    1
    55    36    60    1
    56    37    38    1
    57    38    39    1
    58    39    40    1
    59    40    41    1
    60    41    42    1
    61    45   100    1
    62    47   101    1
    63    47   102    1
    64    47   103    1
    65    48   104    1
    66    49   105    1
    67    49   106    1
    68    49   107    1
    69    50   108    1
    70    51    59    1
    71    52   109    1
    72    52   110    1
    73    52   111    1
    74    53    54    1
    75    54    55    2
    76    54    56    1
    77    56   112    1
    78    56   113    1
    79    56   114    1
    80    57   115    1
    81    57   116    1
    82    57   117    1
    83    58   118    1
    84    58   119    1
    85    58   120    1
    86    59   121    1
    87    59   122    1
    88    59   123    1
    89    60    61    2
    90     1    47    1
    91     1    62    1
    92     2    63    1
    93     3    64    1
    94     4    65    1
    95     5     6    1
    96     7     8    2
    97     9    78    1
    98    15    79    1
    99    18    80    1
   100    18    81    1
   101    19    82    1
   102    19    83    1
   103    20    23    1
   104    21    84    1
   105    21    85    1
   106    22    86    1
   107    22    87    1
   108    27    45    1
   109    28    34    1
   110    32    58    1
   111    33    46    2
   112    36    51    1
   113    36    66    1
   114    37    52    1
   115    37    67    1
   116    38    53    1
   117    38    68    1
   118    42    48    1
   119    42    72    1
   120    43    44    2
   121    60    73    1
   122    61    74    1
   123    39    69    1
   124    39    57    1
   125    40    70    1
   126    40    50    1
   127    41    71    1
   128    41    49    1
