@<TRIPOS>MOLECULE
*****
 123 128 0 0 0
SMALL
GASTEIGER

@<TRIPOS>ATOM
     1 C         -1.874687   -2.279195   -4.172771 C.3        1 UNL1     0.0009
     2 C         -3.293   -3.302371   -4.788021 C.2        1 UNL1     -0.0787
     3 C         -3.930216   -4.590775   -4.961282 C.2        1 UNL1     -0.0649
     4 C         -5.473625   -4.913851   -5.577615 C.2        1 UNL1     -0.0542
     5 C         -6.522553   -5.863936   -5.642187 C.2        1 UNL1     0.0115
     6 C         -6.908038   -7.333999   -5.320261 C.3        1 UNL1     -0.0348
     7 C         -7.986971   -5.375637   -6.082679 C.2        1 UNL1     0.2441
     8 O         -8.441593   -5.562084   -7.202983 O.2        1 UNL1     -0.2702
     9 N         -8.810218   -4.953511   -5.024272 N.am        1 UNL1     -0.2772
     10 C         -8.618181   -3.614733   -4.771056 C.2        1 UNL1     0.1049
     11 C         -7.587169   -3.309453   -4.004218 C.2        1 UNL1     0.0801
     12 C         -8.495029   -1.381742   -5.891733 C.ar        1 UNL1     0.0753
     13 C         -7.263353   -1.184825   -5.18973 C.ar        1 UNL1     0.0305
     14 C         -6.837842   -2.088059   -4.122884 C.2        1 UNL1     0.0924
     15 N         -6.805965   -4.102577   -3.251089 N.pl3        1 UNL1     -0.3170
     16 C         -5.936916   -3.256356   -2.477191 C.3        1 UNL1     0.1275
     17 N         -5.790004   -2.004988   -3.307984 N.2        1 UNL1     -0.2557
     18 C         -6.70435   -2.8452   -1.224315 C.3        1 UNL1     0.0016
     19 C         -7.164254   -4.101284   -0.50159 C.3        1 UNL1     0.0026
     20 N         -5.994841   -4.899834   -0.161267 N.3        1 UNL1     -0.3018
     21 C         -5.158022   -5.292312   -1.297077 C.3        1 UNL1     0.0026
     22 C         -4.703442   -4.015187   -2.00574 C.3        1 UNL1     0.0016
     23 C         -6.290459   -5.958731   0.783186 C.3        1 UNL1     0.0012
     24 C         -5.453949   -5.789577   2.061229 C.3        1 UNL1     -0.0339
     25 C         -5.36574   -7.104206   2.85371 C.3        1 UNL1     -0.0615
     26 C         -4.076281   -5.252294   1.714619 C.3        1 UNL1     -0.0615
     27 C         -8.95215   -0.45148   -6.822201 C.ar        1 UNL1     0.1347
     28 C         -8.286844   0.728225   -7.104541 C.ar        1 UNL1     0.0342
     29 C         -7.052291   0.877422   -6.43762 C.ar        1 UNL1     0.1435
     30 C         -6.564102   -0.063288   -5.5299 C.ar        1 UNL1     0.0774
     31 O         -6.338922   2.021462   -6.52297 O.3        1 UNL1     -0.4436
     32 C         -5.455058   1.982909   -5.392408 C.3        1 UNL1     0.3143
     33 C         -5.332258   0.515359   -5.035434 C.2        1 UNL1     0.2504
     34 C         -8.836035   1.88261   -7.895669 C.3        1 UNL1     -0.0327
     35 O         -4.164962   2.411422   -5.845488 O.2        1 UNL1     -0.4528
     36 C         -2.508722   4.064793   -2.856955 C.3        1 UNL1     0.0854
     37 C         -2.212279   3.469875   -1.42667 C.3        1 UNL1     0.0236
     38 C         -0.679844   3.558072   -0.962331 C.3        1 UNL1     0.1131
     39 C         0.462702   3.03187   -1.92148 C.3        1 UNL1     0.0200
     40 C         0.282826   1.58789   -2.736958 C.3        1 UNL1     0.0661
     41 C         -0.184898   0.109641   -2.048753 C.3        1 UNL1     0.0091
     42 C         -1.147414   -1.281663   -2.758146 C.3        1 UNL1     0.0661
     43 C         -9.314026   -2.56548   -5.530806 C.2        1 UNL1     0.2131
     44 O         -10.510475   -2.645979   -5.742385 O.2        1 UNL1     -0.2851
     45 O         -10.137506   -0.740943   -7.494942 O.3        1 UNL1     -0.5056
     46 O         -4.414537   -0.052387   -4.486522 O.2        1 UNL1     -0.2836
     47 C         -0.644922   -2.445954   -5.10543 C.3        1 UNL1     -0.0566
     48 O         -0.201487   -2.323868   -2.291085 O.3        1 UNL1     -0.3909
     49 C         -0.738266   0.368828   -0.665244 C.3        1 UNL1     -0.0577
     50 O         -0.392545   1.785356   -3.962766 O.3        1 UNL1     -0.3910
     51 O         -1.380122   4.436578   -3.615551 O.3        1 UNL1     -0.3753
     52 C         -3.103487   2.2224   -1.119253 C.3        1 UNL1     -0.0564
     53 O         -0.482485   3.31845   0.505987 O.3        1 UNL1     -0.4608
     54 C         0.725152   3.129431   1.125514 C.2        1 UNL1     0.3042
     55 O         1.845307   3.252557   0.63162 O.2        1 UNL1     -0.2512
     56 C         0.606188   2.789193   2.583869 C.3        1 UNL1     0.0332
     57 C         1.01962   4.286802   -2.741945 C.3        1 UNL1     -0.0567
     58 C         -6.183493   2.716785   -4.242479 C.3        1 UNL1     0.0210
     59 C         -0.124484   4.160844   -2.996512 C.3        1 UNL1     0.0372
     60 C         -3.350846   3.205625   -3.733208 C.2        1 UNL1     -0.0208
     61 C         -3.211349   2.883731   -5.019936 C.2        1 UNL1     0.0882
     62 H         -2.402988   -1.379043   -4.509424 H        1 UNL1     0.0365
     63 H         -3.895629   -2.538125   -5.283235 H        1 UNL1     0.0576
     64 H         -3.504178   -5.50197   -4.535461 H        1 UNL1     0.0615
     65 H         -5.770628   -3.970656   -6.044149 H        1 UNL1     0.0622
     66 H         -3.101823   4.969403   -2.662128 H        1 UNL1     0.0645
     67 H         -2.692679   4.183312   -0.734729 H        1 UNL1     0.0362
     68 H         -0.558205   4.65171   -0.936219 H        1 UNL1     0.0741
     69 H         1.357782   2.864403   -1.337361 H        1 UNL1     0.0359
     70 H         1.334306   1.400714   -3.027502 H        1 UNL1     0.0600
     71 H         0.809568   -0.315053   -1.808688 H        1 UNL1     0.0348
     72 H         -0.777656   -0.700523   -3.615392 H        1 UNL1     0.0602
     73 H         -4.234877   2.934812   -3.211292 H        1 UNL1     0.0628
     74 H         -2.313422   3.073048   -5.609109 H        1 UNL1     0.1022
     75 H         -7.415657   -7.806792   -6.195375 H        1 UNL1     0.0279
     76 H         -6.086223   -8.019938   -5.127445 H        1 UNL1     0.0279
     77 H         -7.68908   -7.409824   -4.549597 H        1 UNL1     0.0279
     78 H         -8.567089   -5.463384   -4.177517 H        1 UNL1     0.1553
     79 H         -7.06743   -5.026129   -2.958479 H        1 UNL1     0.1484
     80 H         -6.051345   -2.234209   -0.58946 H        1 UNL1     0.0317
     81 H         -7.566259   -2.219978   -1.480953 H        1 UNL1     0.0317
     82 H         -7.877102   -4.681017   -1.106296 H        1 UNL1     0.0428
     83 H         -7.710721   -3.785132   0.387494 H        1 UNL1     0.0428
     84 H         -4.245333   -5.822135   -1.00708 H        1 UNL1     0.0428
     85 H         -5.675886   -5.997252   -1.962053 H        1 UNL1     0.0428
     86 H         -3.990817   -4.331978   -2.744521 H        1 UNL1     0.0317
     87 H         -4.104592   -3.40049   -1.322643 H        1 UNL1     0.0317
     88 H         -7.353353   -5.891708   1.049755 H        1 UNL1     0.0429
     89 H         -6.133071   -6.948234   0.334981 H        1 UNL1     0.0429
     90 H         -5.920709   -5.028687   2.697935 H        1 UNL1     0.0308
     91 H         -5.999229   -7.074425   3.745286 H        1 UNL1     0.0233
     92 H         -5.662632   -7.951336   2.230946 H        1 UNL1     0.0233
     93 H         -4.345759   -7.318354   3.195197 H        1 UNL1     0.0233
     94 H         -3.71295   -4.599473   2.51565 H        1 UNL1     0.0233
     95 H         -3.368942   -6.079345   1.606824 H        1 UNL1     0.0233
     96 H         -4.094105   -4.679393   0.783257 H        1 UNL1     0.0233
     97 H         -9.737909   1.613084   -8.437157 H        1 UNL1     0.0280
     98 H         -9.11242   2.729635   -7.254251 H        1 UNL1     0.0280
     99 H         -8.082785   2.221211   -8.625779 H        1 UNL1     0.0280
     100 H         -10.850642   -0.158711   -7.299835 H        1 UNL1     0.2922
     101 H         -0.050434   -1.532627   -5.096842 H        1 UNL1     0.0236
     102 H         -0.912123   -2.750531   -6.116775 H        1 UNL1     0.0236
     103 H         0.04253   -3.230711   -4.747994 H        1 UNL1     0.0236
     104 H         -0.308993   -3.101776   -2.872696 H        1 UNL1     0.2098
     105 H         -0.89857   1.419151   -0.435167 H        1 UNL1     0.0234
     106 H         -1.624923   -0.212726   -0.413129 H        1 UNL1     0.0234
     107 H         0.0   0.0   0.0 H        1 UNL1     0.0234
     108 H         -1.243218   2.219473   -3.758643 H        1 UNL1     0.2098
     109 H         -3.912823   2.453339   -0.412604 H        1 UNL1     0.0234
     110 H         -3.523619   1.761211   -2.019552 H        1 UNL1     0.0234
     111 H         -2.522959   1.415305   -0.65285 H        1 UNL1     0.0234
     112 H         1.528632   2.314365   2.931693 H        1 UNL1     0.0342
     113 H         0.363235   3.661106   3.189332 H        1 UNL1     0.0342
     114 H         -0.210883   2.064123   2.701476 H        1 UNL1     0.0342
     115 H         1.540511   3.976988   -3.658392 H        1 UNL1     0.0234
     116 H         0.250307   5.006458   -3.028828 H        1 UNL1     0.0234
     117 H         1.820354   4.835448   -2.216821 H        1 UNL1     0.0234
     118 H         -5.59377   2.713237   -3.309086 H        1 UNL1     0.0309
     119 H         -6.451667   3.748115   -4.492768 H        1 UNL1     0.0309
     120 H         -7.117265   2.222356   -3.953144 H        1 UNL1     0.0309
     121 H         -0.087269   4.720983   -2.062587 H        1 UNL1     0.0524
     122 H         -0.006042   3.092997   -2.748094 H        1 UNL1     0.0524
     123 H         0.690317   4.463763   -3.647997 H        1 UNL1     0.0524
@<TRIPOS>BOND
     1     1     2    1
     2     1    42    1
     3     2     3    2
     4     3     4    1
     5     4     5    2
     6     5     7    1
     7     6    75    1
     8     6    76    1
     9     6    77    1
    10     7     9   am
    11     9    10    1
    12    10    11    2
    13    10    43    1
    14    11    14    1
    15    11    15    1
    16    12    13   ar
    17    12    27   ar
    18    12    43    1
    19    13    14    1
    20    13    30   ar
    21    14    17    2
    22    15    16    1
    23    16    17    1
    24    16    18    1
    25    16    22    1
    26    18    19    1
    27    19    20    1
    28    20    21    1
    29    21    22    1
    30    23    24    1
    31    23    88    1
    32    23    89    1
    33    24    25    1
    34    24    26    1
    35    24    90    1
    36    25    91    1
    37    25    92    1
    38    25    93    1
    39    26    94    1
    40    26    95    1
    41    26    96    1
    42    27    28   ar
    43    28    29   ar
    44    29    30   ar
    45    29    31    1
    46    30    33    1
    47    31    32    1
    48    32    33    1
    49    32    35    1
    50    34    97    1
    51    34    98    1
    52    34    99    1
    53    35    61    1
    54    36    37    1
    55    36    60    1
    56    37    38    1
    57    38    39    1
    58    39    40    1
    59    40    41    1
    60    41    42    1
    61    45   100    1
    62    47   101    1
    63    47   102    1
    64    47   103    1
    65    48   104    1
    66    49   105    1
    67    49   106    1
    68    49   107    1
    69    50   108    1
    70    51    59    1
    71    52   109    1
    72    52   110    1
    73    52   111    1
    74    53    54    1
    75    54    55    2
    76    54    56    1
    77    56   112    1
    78    56   113    1
    79    56   114    1
    80    57   115    1
    81    57   116    1
    82    57   117    1
    83    58   118    1
    84    58   119    1
    85    58   120    1
    86    59   121    1
    87    59   122    1
    88    59   123    1
    89    60    61    2
    90     1    47    1
    91     1    62    1
    92     2    63    1
    93     3    64    1
    94     4    65    1
    95     5     6    1
    96     7     8    2
    97     9    78    1
    98    15    79    1
    99    18    80    1
   100    18    81    1
   101    19    82    1
   102    19    83    1
   103    20    23    1
   104    21    84    1
   105    21    85    1
   106    22    86    1
   107    22    87    1
   108    27    45    1
   109    28    34    1
   110    32    58    1
   111    33    46    2
   112    36    51    1
   113    36    66    1
   114    37    52    1
   115    37    67    1
   116    38    53    1
   117    38    68    1
   118    42    48    1
   119    42    72    1
   120    43    44    2
   121    60    73    1
   122    61    74    1
   123    39    69    1
   124    39    57    1
   125    40    70    1
   126    40    50    1
   127    41    71    1
   128    41    49    1
