@<TRIPOS>MOLECULE
*****
 123 128 0 0 0
SMALL
GASTEIGER

@<TRIPOS>ATOM
     1 C         0.289331   3.676381   -3.28966 C.3        1 UNL1     0.0009
     2 C         -0.606677   5.277333   -3.55642 C.2        1 UNL1     -0.0787
     3 C         -1.465726   6.116306   -4.365249 C.2        1 UNL1     -0.0649
     4 C         -2.106137   7.633819   -3.973603 C.2        1 UNL1     -0.0542
     5 C         -3.118814   8.578684   -4.271584 C.2        1 UNL1     0.0115
     6 C         -4.245421   8.937577   -5.279193 C.3        1 UNL1     -0.0348
     7 C         -3.45028   9.726411   -3.199276 C.2        1 UNL1     0.2441
     8 O         -3.057721   10.879185   -3.315613 O.2        1 UNL1     -0.2702
     9 N         -4.435548   9.384866   -2.256543 N.am        1 UNL1     -0.2772
     10 C         -3.865311   8.761964   -1.170199 C.2        1 UNL1     0.1049
     11 C         -3.631656   7.468344   -1.297383 C.2        1 UNL1     0.0801
     12 C         -2.003463   8.974548   0.486807 C.ar        1 UNL1     0.0753
     13 C         -1.660586   7.62467   0.156848 C.ar        1 UNL1     0.0305
     14 C         -2.544663   6.785855   -0.649285 C.2        1 UNL1     0.0924
     15 N         -4.048544   6.603646   -2.238142 N.pl3        1 UNL1     -0.3170
     16 C         -3.66068   5.281784   -1.822813 C.3        1 UNL1     0.1275
     17 N         -2.437172   5.498643   -0.966237 N.2        1 UNL1     -0.2557
     18 C         -4.74783   4.765179   -0.885304 C.3        1 UNL1     0.0016
     19 C         -6.083991   4.829426   -1.607893 C.3        1 UNL1     0.0026
     20 N         -6.002981   4.017342   -2.81412 N.3        1 UNL1     -0.3018
     21 C         -4.944486   4.399612   -3.751045 C.3        1 UNL1     0.0026
     22 C         -3.610921   4.323588   -3.005578 C.3        1 UNL1     0.0016
     23 C         -7.298531   3.767967   -3.414124 C.3        1 UNL1     0.0012
     24 C         -7.166911   3.620678   -4.938178 C.3        1 UNL1     -0.0339
     25 C         -7.478132   2.185423   -5.393415 C.3        1 UNL1     -0.0615
     26 C         -8.055612   4.634198   -5.638012 C.3        1 UNL1     -0.0615
     27 C         -1.215784   9.727915   1.354053 C.ar        1 UNL1     0.1347
     28 C         -0.088453   9.228558   1.981604 C.ar        1 UNL1     0.0342
     29 C         0.257078   7.913626   1.603813 C.ar        1 UNL1     0.1435
     30 C         -0.502281   7.159325   0.708479 C.ar        1 UNL1     0.0774
     31 O         1.264777   7.24816   2.209374 O.3        1 UNL1     -0.4436
     32 C         1.010045   5.864867   1.922173 C.3        1 UNL1     0.3143
     33 C         0.157322   5.870847   0.669559 C.2        1 UNL1     0.2504
     34 C         0.657915   9.886833   3.108417 C.3        1 UNL1     -0.0327
     35 O         2.26306   5.264965   1.571002 O.2        1 UNL1     -0.4528
     36 C         2.01527   1.632827   2.64537 C.3        1 UNL1     0.0854
     37 C         0.958804   0.539548   2.225676 C.3        1 UNL1     0.0236
     38 C         1.583895   -0.804872   1.614496 C.3        1 UNL1     0.1131
     39 C         2.640419   -0.71648   0.440523 C.3        1 UNL1     0.0200
     40 C         2.401714   0.333208   -0.833688 C.3        1 UNL1     0.0661
     41 C         0.979943   0.479896   -1.747286 C.3        1 UNL1     0.0091
     42 C         0.239615   1.943021   -2.569833 C.3        1 UNL1     0.0661
     43 C         -3.274416   9.516375   -0.054824 C.2        1 UNL1     0.2131
     44 O         -3.868233   10.458731   0.437196 O.2        1 UNL1     -0.2851
     45 O         -1.594457   11.048449   1.586935 O.3        1 UNL1     -0.5056
     46 O         0.061167   5.014241   -0.180637 O.2        1 UNL1     -0.2836
     47 C         1.547301   3.604855   -4.196511 C.3        1 UNL1     -0.0566
     48 O         -0.007814   1.239532   -3.851628 O.3        1 UNL1     -0.3909
     49 C         -0.140508   -0.233817   -1.024308 C.3        1 UNL1     -0.0577
     50 O         2.915555   1.614517   -0.530478 O.3        1 UNL1     -0.3910
     51 O         3.350739   1.372798   2.276128 O.3        1 UNL1     -0.3753
     52 C         -0.348472   1.181796   1.656907 C.3        1 UNL1     -0.0564
     53 O         0.610768   -1.945733   1.552978 O.3        1 UNL1     -0.4608
     54 C         -0.649691   -1.887723   1.018367 C.2        1 UNL1     0.3042
     55 O         -1.145966   -2.651407   0.19112 O.2        1 UNL1     -0.2512
     56 C         -1.492519   -0.780345   1.584111 C.3        1 UNL1     0.0332
     57 C         4.097499   -0.77158   1.097834 C.3        1 UNL1     -0.0567
     58 C         0.165097   5.322334   3.098289 C.3        1 UNL1     0.0210
     59 C         4.278159   2.402129   2.617061 C.3        1 UNL1     0.0372
     60 C         1.705054   3.015035   2.188831 C.2        1 UNL1     -0.0208
     61 C         2.490807   3.939023   1.634229 C.2        1 UNL1     0.0882
     62 H         0.626796   4.049727   -2.315267 H        1 UNL1     0.0365
     63 H         -0.270731   5.846009   -2.686812 H        1 UNL1     0.0576
     64 H         -1.927177   5.746303   -5.283545 H        1 UNL1     0.0615
     65 H         -1.527503   7.943018   -3.098925 H        1 UNL1     0.0622
     66 H         1.963848   1.65936   3.742957 H        1 UNL1     0.0645
     67 H         0.553125   0.176214   3.18587 H        1 UNL1     0.0362
     68 H         2.149324   -1.159313   2.489815 H        1 UNL1     0.0741
     69 H         2.695055   -1.678334   -0.051678 H        1 UNL1     0.0359
     70 H         3.119532   -0.086971   -1.563926 H        1 UNL1     0.0600
     71 H         1.200714   -0.234556   -2.564461 H        1 UNL1     0.0348
     72 H         1.296737   2.193523   -2.399369 H        1 UNL1     0.0602
     73 H         0.716582   3.266613   2.483585 H        1 UNL1     0.0628
     74 H         3.493922   3.746705   1.252115 H        1 UNL1     0.1022
     75 H         -4.964992   9.658913   -4.822108 H        1 UNL1     0.0279
     76 H         -3.938947   9.45496   -6.185536 H        1 UNL1     0.0279
     77 H         -4.904384   8.085507   -5.501556 H        1 UNL1     0.0279
     78 H         -5.09542   8.731228   -2.672961 H        1 UNL1     0.1553
     79 H         -4.827613   6.775645   -2.846747 H        1 UNL1     0.1484
     80 H         -4.503481   3.738889   -0.585654 H        1 UNL1     0.0317
     81 H         -4.786522   5.359331   0.03401 H        1 UNL1     0.0317
     82 H         -6.368595   5.86486   -1.8462 H        1 UNL1     0.0428
     83 H         -6.845147   4.458293   -0.920905 H        1 UNL1     0.0428
     84 H         -4.853736   3.726059   -4.608893 H        1 UNL1     0.0428
     85 H         -5.134094   5.383072   -4.202898 H        1 UNL1     0.0428
     86 H         -2.853199   4.478486   -3.751132 H        1 UNL1     0.0317
     87 H         -3.428438   3.296077   -2.667915 H        1 UNL1     0.0317
     88 H         -7.689229   2.82728   -3.004542 H        1 UNL1     0.0429
     89 H         -8.017151   4.555476   -3.152998 H        1 UNL1     0.0429
     90 H         -6.14056   3.866493   -5.235486 H        1 UNL1     0.0308
     91 H         -8.548888   1.970505   -5.327126 H        1 UNL1     0.0233
     92 H         -7.143035   2.024803   -6.4208 H        1 UNL1     0.0233
     93 H         -6.964254   1.432991   -4.782997 H        1 UNL1     0.0233
     94 H         -8.903449   4.899304   -4.997131 H        1 UNL1     0.0233
     95 H         -7.490356   5.547407   -5.84416 H        1 UNL1     0.0233
     96 H         -8.445082   4.239747   -6.580715 H        1 UNL1     0.0233
     97 H         1.704387   10.045956   2.865919 H        1 UNL1     0.0280
     98 H         0.251621   10.877473   3.350933 H        1 UNL1     0.0280
     99 H         0.604305   9.251366   4.00753 H        1 UNL1     0.0280
     100 H         -2.435865   11.148055   1.996488 H        1 UNL1     0.2922
     101 H         1.482658   4.364259   -4.975473 H        1 UNL1     0.0236
     102 H         1.723517   2.611364   -4.607495 H        1 UNL1     0.0236
     103 H         2.470315   3.848283   -3.64426 H        1 UNL1     0.0236
     104 H         0.731863   1.453794   -4.453243 H        1 UNL1     0.2098
     105 H         -1.137791   0.094075   -1.306664 H        1 UNL1     0.0234
     106 H         -0.079019   -1.32169   -1.05033 H        1 UNL1     0.0234
     107 H         0.0   0.0   0.0 H        1 UNL1     0.0234
     108 H         3.165118   2.034549   -1.37609 H        1 UNL1     0.2098
     109 H         -0.145249   1.874099   0.827976 H        1 UNL1     0.0234
     110 H         -1.090343   0.440257   1.341487 H        1 UNL1     0.0234
     111 H         -0.872234   1.775196   2.418153 H        1 UNL1     0.0234
     112 H         -2.537906   -1.098995   1.638644 H        1 UNL1     0.0342
     113 H         -1.133782   -0.448997   2.557435 H        1 UNL1     0.0342
     114 H         -1.437091   0.077103   0.899366 H        1 UNL1     0.0342
     115 H         4.4939   0.233573   1.297139 H        1 UNL1     0.0234
     116 H         4.14171   -1.333363   2.032978 H        1 UNL1     0.0234
     117 H         4.870351   -1.175143   0.421241 H        1 UNL1     0.0234
     118 H         -0.423467   4.433598   2.810632 H        1 UNL1     0.0309
     119 H         0.763564   5.084442   3.983415 H        1 UNL1     0.0309
     120 H         -0.598405   6.034091   3.430816 H        1 UNL1     0.0309
     121 H         3.817422   3.018822   3.388273 H        1 UNL1     0.0524
     122 H         5.217111   1.99881   3.031478 H        1 UNL1     0.0524
     123 H         4.508672   3.004875   1.743187 H        1 UNL1     0.0524
@<TRIPOS>BOND
     1     1     2    1
     2     1    42    1
     3     2     3    2
     4     3     4    1
     5     4     5    2
     6     5     7    1
     7     6    75    1
     8     6    76    1
     9     6    77    1
    10     7     9   am
    11     9    10    1
    12    10    11    2
    13    10    43    1
    14    11    14    1
    15    11    15    1
    16    12    13   ar
    17    12    27   ar
    18    12    43    1
    19    13    14    1
    20    13    30   ar
    21    14    17    2
    22    15    16    1
    23    16    17    1
    24    16    18    1
    25    16    22    1
    26    18    19    1
    27    19    20    1
    28    20    21    1
    29    21    22    1
    30    23    24    1
    31    23    88    1
    32    23    89    1
    33    24    25    1
    34    24    26    1
    35    24    90    1
    36    25    91    1
    37    25    92    1
    38    25    93    1
    39    26    94    1
    40    26    95    1
    41    26    96    1
    42    27    28   ar
    43    28    29   ar
    44    29    30   ar
    45    29    31    1
    46    30    33    1
    47    31    32    1
    48    32    33    1
    49    32    35    1
    50    34    97    1
    51    34    98    1
    52    34    99    1
    53    35    61    1
    54    36    37    1
    55    36    60    1
    56    37    38    1
    57    38    39    1
    58    39    40    1
    59    40    41    1
    60    41    42    1
    61    45   100    1
    62    47   101    1
    63    47   102    1
    64    47   103    1
    65    48   104    1
    66    49   105    1
    67    49   106    1
    68    49   107    1
    69    50   108    1
    70    51    59    1
    71    52   109    1
    72    52   110    1
    73    52   111    1
    74    53    54    1
    75    54    55    2
    76    54    56    1
    77    56   112    1
    78    56   113    1
    79    56   114    1
    80    57   115    1
    81    57   116    1
    82    57   117    1
    83    58   118    1
    84    58   119    1
    85    58   120    1
    86    59   121    1
    87    59   122    1
    88    59   123    1
    89    60    61    2
    90     1    47    1
    91     1    62    1
    92     2    63    1
    93     3    64    1
    94     4    65    1
    95     5     6    1
    96     7     8    2
    97     9    78    1
    98    15    79    1
    99    18    80    1
   100    18    81    1
   101    19    82    1
   102    19    83    1
   103    20    23    1
   104    21    84    1
   105    21    85    1
   106    22    86    1
   107    22    87    1
   108    27    45    1
   109    28    34    1
   110    32    58    1
   111    33    46    2
   112    36    51    1
   113    36    66    1
   114    37    52    1
   115    37    67    1
   116    38    53    1
   117    38    68    1
   118    42    48    1
   119    42    72    1
   120    43    44    2
   121    60    73    1
   122    61    74    1
   123    39    69    1
   124    39    57    1
   125    40    70    1
   126    40    50    1
   127    41    71    1
   128    41    49    1
