@<TRIPOS>MOLECULE
*****
 123 128 0 0 0
SMALL
GASTEIGER

@<TRIPOS>ATOM
     1 C         -1.224335   3.171516   -4.176413 C.3        1 UNL1     0.0009
     2 C         -2.341012   3.306724   -5.650112 C.2        1 UNL1     -0.0787
     3 C         -2.532427   3.306977   -7.085175 C.2        1 UNL1     -0.0649
     4 C         -3.992329   3.369604   -7.940232 C.2        1 UNL1     -0.0542
     5 C         -4.622052   3.111746   -9.182825 C.2        1 UNL1     0.0115
     6 C         -4.364188   2.741766   -10.669413 C.3        1 UNL1     -0.0348
     7 C         -6.222696   3.000977   -9.23438 C.2        1 UNL1     0.2441
     8 O         -6.939391   3.904185   -9.643144 O.2        1 UNL1     -0.2702
     9 N         -6.730553   1.70689   -9.025645 N.am        1 UNL1     -0.2772
     10 C         -6.920913   1.476606   -7.682494 C.2        1 UNL1     0.1049
     11 C         -5.855499   1.09767   -7.000202 C.2        1 UNL1     0.0801
     12 C         -7.933104   2.472535   -5.623142 C.ar        1 UNL1     0.0753
     13 C         -6.676858   2.228053   -4.982297 C.ar        1 UNL1     0.0305
     14 C         -5.641665   1.412727   -5.613699 C.2        1 UNL1     0.0924
     15 N         -4.649614   0.69395   -7.43538 N.pl3        1 UNL1     -0.3170
     16 C         -3.90424   0.229108   -6.295822 C.3        1 UNL1     0.1275
     17 N         -4.471345   1.004205   -5.131632 N.2        1 UNL1     -0.2557
     18 C         -4.29363   -1.227796   -6.064504 C.3        1 UNL1     0.0016
     19 C         -4.037076   -2.008729   -7.343532 C.3        1 UNL1     0.0026
     20 N         -2.626925   -1.891654   -7.688198 N.3        1 UNL1     -0.3018
     21 C         -2.143108   -0.521586   -7.870414 C.3        1 UNL1     0.0026
     22 C         -2.406596   0.243405   -6.572239 C.3        1 UNL1     0.0016
     23 C         -2.216363   -2.832861   -8.711043 C.3        1 UNL1     0.0012
     24 C         -1.06178   -2.25375   -9.543705 C.3        1 UNL1     -0.0339
     25 C         -1.1407   -2.711489   -11.009414 C.3        1 UNL1     -0.0615
     26 C         -1.047054   -0.739194   -9.431095 C.3        1 UNL1     -0.0615
     27 C         -8.959064   3.147875   -4.966301 C.ar        1 UNL1     0.1347
     28 C         -8.860635   3.589479   -3.65888 C.ar        1 UNL1     0.0342
     29 C         -7.597842   3.380988   -3.064702 C.ar        1 UNL1     0.1435
     30 C         -6.548732   2.738113   -3.722957 C.ar        1 UNL1     0.0774
     31 O         -7.378711   3.655832   -1.760306 O.3        1 UNL1     -0.4436
     32 C         -6.205769   2.900191   -1.422542 C.3        1 UNL1     0.3143
     33 C         -5.4893   2.671688   -2.738092 C.2        1 UNL1     0.2504
     34 C         -9.995113   4.092669   -2.810434 C.3        1 UNL1     -0.0327
     35 O         -5.365116   3.749342   -0.631658 O.2        1 UNL1     -0.4528
     36 C         -3.446942   1.44154   1.692723 C.3        1 UNL1     0.0854
     37 C         -2.505155   0.227422   1.337085 C.3        1 UNL1     0.0236
     38 C         -1.028177   0.313918   1.955791 C.3        1 UNL1     0.1131
     39 C         -0.171028   1.629038   1.760793 C.3        1 UNL1     0.0200
     40 C         -0.124863   2.395629   0.280034 C.3        1 UNL1     0.0661
     41 C         0.18699   1.654128   -1.213463 C.3        1 UNL1     0.0091
     42 C         -0.437736   2.050238   -2.892218 C.3        1 UNL1     0.0661
     43 C         -8.138998   1.904621   -6.978628 C.2        1 UNL1     0.2131
     44 O         -9.237306   1.695971   -7.461248 O.2        1 UNL1     -0.2851
     45 O         -10.133878   3.384855   -5.676997 O.3        1 UNL1     -0.5056
     46 O         -4.307068   2.496559   -2.931768 O.2        1 UNL1     -0.2836
     47 C         -0.400906   4.475978   -4.00228 C.3        1 UNL1     -0.0566
     48 O         0.899394   1.982362   -3.529864 O.3        1 UNL1     -0.3909
     49 C         0.080735   0.154794   -1.045534 C.3        1 UNL1     -0.0577
     50 O         -1.199185   3.305239   0.152895 O.3        1 UNL1     -0.3910
     51 O         -2.832821   2.524385   2.354337 O.3        1 UNL1     -0.3753
     52 C         -2.771524   -0.312282   -0.106077 C.3        1 UNL1     -0.0564
     53 O         -0.278895   -0.985452   1.905395 O.3        1 UNL1     -0.4608
     54 C         0.913891   -1.240225   2.530121 C.2        1 UNL1     0.3042
     55 O         1.095873   -1.480319   3.723049 O.2        1 UNL1     -0.2512
     56 C         2.088443   -1.271299   1.594079 C.3        1 UNL1     0.0332
     57 C         -0.374772   2.535024   3.063042 C.3        1 UNL1     -0.0567
     58 C         -6.702845   1.539127   -0.882217 C.3        1 UNL1     0.0210
     59 C         -3.692353   3.633107   2.614731 C.3        1 UNL1     0.0372
     60 C         -4.198866   2.012223   0.542031 C.2        1 UNL1     -0.0208
     61 C         -4.40355   3.281439   0.187148 C.2        1 UNL1     0.0882
     62 H         -2.102443   3.266611   -3.526341 H        1 UNL1     0.0365
     63 H         -3.292946   3.531023   -5.164333 H        1 UNL1     0.0576
     64 H         -1.710593   3.093604   -7.77232 H        1 UNL1     0.0615
     65 H         -4.724918   3.664065   -7.183866 H        1 UNL1     0.0622
     66 H         -4.204119   1.015552   2.365971 H        1 UNL1     0.0645
     67 H         -2.931673   -0.617913   1.90458 H        1 UNL1     0.0362
     68 H         -1.275743   0.283281   3.027842 H        1 UNL1     0.0741
     69 H         0.870111   1.395577   1.939496 H        1 UNL1     0.0359
     70 H         0.765189   3.037343   0.425195 H        1 UNL1     0.0600
     71 H         1.284962   1.788845   -1.270624 H        1 UNL1     0.0348
     72 H         -0.594764   2.955996   -2.288678 H        1 UNL1     0.0602
     73 H         -4.711102   1.230964   0.037555 H        1 UNL1     0.0628
     74 H         -3.874703   4.134138   0.614304 H        1 UNL1     0.1022
     75 H         -3.36744   2.251499   -10.784157 H        1 UNL1     0.0279
     76 H         -5.037248   2.010344   -11.111093 H        1 UNL1     0.0279
     77 H         -4.246477   3.625604   -11.313366 H        1 UNL1     0.0279
     78 H         -6.061037   1.018227   -9.362646 H        1 UNL1     0.1553
     79 H         -4.474084   0.370113   -8.368788 H        1 UNL1     0.1484
     80 H         -3.707276   -1.626042   -5.227632 H        1 UNL1     0.0317
     81 H         -5.347117   -1.310245   -5.776375 H        1 UNL1     0.0317
     82 H         -4.676337   -1.66068   -8.168226 H        1 UNL1     0.0428
     83 H         -4.323152   -3.044309   -7.157022 H        1 UNL1     0.0428
     84 H         -1.065346   -0.457183   -8.049559 H        1 UNL1     0.0428
     85 H         -2.5894   -0.044578   -8.753932 H        1 UNL1     0.0428
     86 H         -1.923231   1.195029   -6.693727 H        1 UNL1     0.0317
     87 H         -1.852873   -0.218853   -5.745919 H        1 UNL1     0.0317
     88 H         -1.864648   -3.746101   -8.213465 H        1 UNL1     0.0429
     89 H         -3.06078   -3.120011   -9.350793 H        1 UNL1     0.0429
     90 H         -0.108719   -2.594715   -9.122242 H        1 UNL1     0.0308
     91 H         -2.156635   -2.611626   -11.403122 H        1 UNL1     0.0233
     92 H         -0.455943   -2.131553   -11.632624 H        1 UNL1     0.0233
     93 H         -0.85278   -3.762301   -11.134844 H        1 UNL1     0.0233
     94 H         -1.366832   -0.287057   -10.376161 H        1 UNL1     0.0233
     95 H         -1.74152   -0.415783   -8.650657 H        1 UNL1     0.0233
     96 H         -0.047395   -0.366631   -9.190578 H        1 UNL1     0.0233
     97 H         -9.811483   5.096073   -2.438022 H        1 UNL1     0.0280
     98 H         -10.937823   4.147764   -3.370361 H        1 UNL1     0.0280
     99 H         -10.13442   3.423275   -1.945795 H        1 UNL1     0.0280
     100 H         -10.591459   2.608167   -5.947179 H        1 UNL1     0.2922
     101 H         -1.073585   5.332254   -3.958112 H        1 UNL1     0.0236
     102 H         0.370421   4.600566   -4.761567 H        1 UNL1     0.0236
     103 H         0.14289   4.497522   -3.043106 H        1 UNL1     0.0236
     104 H         1.55231   2.311942   -2.881753 H        1 UNL1     0.2098
     105 H         -0.793036   -0.289015   -1.516032 H        1 UNL1     0.0234
     106 H         0.978991   -0.398804   -1.318648 H        1 UNL1     0.0234
     107 H         0.0   -0.0   0.0 H        1 UNL1     0.0234
     108 H         -0.822159   4.205612   0.183673 H        1 UNL1     0.2098
     109 H         -1.854878   -0.678856   -0.588876 H        1 UNL1     0.0234
     110 H         -3.539978   -1.092118   -0.138927 H        1 UNL1     0.0234
     111 H         -3.161439   0.473658   -0.76654 H        1 UNL1     0.0234
     112 H         3.002292   -1.499274   2.151083 H        1 UNL1     0.0342
     113 H         1.942589   -1.976487   0.777207 H        1 UNL1     0.0342
     114 H         2.202964   -0.271131   1.153949 H        1 UNL1     0.0342
     115 H         0.202386   3.468186   3.005734 H        1 UNL1     0.0234
     116 H         -1.414775   2.803662   3.258685 H        1 UNL1     0.0234
     117 H         0.039169   2.084509   3.981536 H        1 UNL1     0.0234
     118 H         -5.937004   0.74979   -0.979381 H        1 UNL1     0.0309
     119 H         -7.038117   1.58666   0.158713 H        1 UNL1     0.0309
     120 H         -7.548191   1.142755   -1.455266 H        1 UNL1     0.0309
     121 H         -3.074038   4.529872   2.643975 H        1 UNL1     0.0524
     122 H         -4.444893   3.774485   1.821173 H        1 UNL1     0.0524
     123 H         -4.202398   3.498355   3.564357 H        1 UNL1     0.0524
@<TRIPOS>BOND
     1     1     2    1
     2     1    42    1
     3     2     3    2
     4     3     4    1
     5     4     5    2
     6     5     7    1
     7     6    75    1
     8     6    76    1
     9     6    77    1
    10     7     9   am
    11     9    10    1
    12    10    11    2
    13    10    43    1
    14    11    14    1
    15    11    15    1
    16    12    13   ar
    17    12    27   ar
    18    12    43    1
    19    13    14    1
    20    13    30   ar
    21    14    17    2
    22    15    16    1
    23    16    17    1
    24    16    18    1
    25    16    22    1
    26    18    19    1
    27    19    20    1
    28    20    21    1
    29    21    22    1
    30    23    24    1
    31    23    88    1
    32    23    89    1
    33    24    25    1
    34    24    26    1
    35    24    90    1
    36    25    91    1
    37    25    92    1
    38    25    93    1
    39    26    94    1
    40    26    95    1
    41    26    96    1
    42    27    28   ar
    43    28    29   ar
    44    29    30   ar
    45    29    31    1
    46    30    33    1
    47    31    32    1
    48    32    33    1
    49    32    35    1
    50    34    97    1
    51    34    98    1
    52    34    99    1
    53    35    61    1
    54    36    37    1
    55    36    60    1
    56    37    38    1
    57    38    39    1
    58    39    40    1
    59    40    41    1
    60    41    42    1
    61    45   100    1
    62    47   101    1
    63    47   102    1
    64    47   103    1
    65    48   104    1
    66    49   105    1
    67    49   106    1
    68    49   107    1
    69    50   108    1
    70    51    59    1
    71    52   109    1
    72    52   110    1
    73    52   111    1
    74    53    54    1
    75    54    55    2
    76    54    56    1
    77    56   112    1
    78    56   113    1
    79    56   114    1
    80    57   115    1
    81    57   116    1
    82    57   117    1
    83    58   118    1
    84    58   119    1
    85    58   120    1
    86    59   121    1
    87    59   122    1
    88    59   123    1
    89    60    61    2
    90     1    47    1
    91     1    62    1
    92     2    63    1
    93     3    64    1
    94     4    65    1
    95     5     6    1
    96     7     8    2
    97     9    78    1
    98    15    79    1
    99    18    80    1
   100    18    81    1
   101    19    82    1
   102    19    83    1
   103    20    23    1
   104    21    84    1
   105    21    85    1
   106    22    86    1
   107    22    87    1
   108    27    45    1
   109    28    34    1
   110    32    58    1
   111    33    46    2
   112    36    51    1
   113    36    66    1
   114    37    52    1
   115    37    67    1
   116    38    53    1
   117    38    68    1
   118    42    48    1
   119    42    72    1
   120    43    44    2
   121    60    73    1
   122    61    74    1
   123    39    69    1
   124    39    57    1
   125    40    70    1
   126    40    50    1
   127    41    71    1
   128    41    49    1
