@<TRIPOS>MOLECULE
*****
 123 128 0 0 0
SMALL
GASTEIGER

@<TRIPOS>ATOM
     1 C         5.154576   1.855049   -0.029965 C.3        1 UNL1     0.0009
     2 C         6.712965   2.071254   0.950706 C.2        1 UNL1     -0.0787
     3 C         7.608519   2.91226   1.716694 C.2        1 UNL1     -0.0649
     4 C         8.998399   2.450161   2.565844 C.2        1 UNL1     -0.0542
     5 C         9.907411   2.812783   3.590187 C.2        1 UNL1     0.0115
     6 C         10.343121   3.968588   4.532309 C.3        1 UNL1     -0.0348
     7 C         10.846796   1.680216   4.231934 C.2        1 UNL1     0.2441
     8 O         12.027474   1.550469   3.939205 O.2        1 UNL1     -0.2702
     9 N         10.294964   1.016356   5.341404 N.am        1 UNL1     -0.2772
     10 C         9.548973   -0.06488   4.931835 C.2        1 UNL1     0.1049
     11 C         8.310406   0.192635   4.552546 C.2        1 UNL1     0.0801
     12 C         9.623964   -2.080439   3.45223 C.ar        1 UNL1     0.0753
     13 C         8.369316   -1.640891   2.921886 C.ar        1 UNL1     0.0305
     14 C         7.609807   -0.561266   3.548469 C.2        1 UNL1     0.0924
     15 N         7.578322   1.310854   4.694549 N.pl3        1 UNL1     -0.3170
     16 C         6.236988   1.015283   4.265931 C.3        1 UNL1     0.1275
     17 N         6.398863   -0.095039   3.256622 N.2        1 UNL1     -0.2557
     18 C         5.506591   0.401939   5.456742 C.3        1 UNL1     0.0016
     19 C         5.592913   1.365922   6.629292 C.3        1 UNL1     0.0026
     20 N         4.988276   2.632164   6.239326 N.3        1 UNL1     -0.3018
     21 C         5.584287   3.269703   5.06345 C.3        1 UNL1     0.0026
     22 C         5.482586   2.285745   3.89667 C.3        1 UNL1     0.0016
     23 C         4.749076   3.513234   7.365001 C.3        1 UNL1     0.0012
     24 C         4.853271   4.983463   6.929882 C.3        1 UNL1     -0.0339
     25 C         5.432261   5.862054   8.050999 C.3        1 UNL1     -0.0615
     26 C         5.671689   5.092545   5.655098 C.3        1 UNL1     -0.0615
     27 C         10.283122   -3.187545   2.92313 C.ar        1 UNL1     0.1347
     28 C         9.768916   -3.955556   1.893663 C.ar        1 UNL1     0.0342
     29 C         8.556408   -3.475132   1.354978 C.ar        1 UNL1     0.1435
     30 C         7.902675   -2.346473   1.850944 C.ar        1 UNL1     0.0774
     31 O         7.873892   -4.174019   0.421847 O.3        1 UNL1     -0.4436
     32 C         6.539005   -3.649074   0.480018 C.3        1 UNL1     0.3143
     33 C         6.684205   -2.262225   1.073127 C.2        1 UNL1     0.2504
     34 C         10.290717   -5.292287   1.445363 C.3        1 UNL1     -0.0327
     35 O         6.088377   -3.480499   -0.869711 O.2        1 UNL1     -0.4528
     36 C         2.324049   -3.959485   -0.777534 C.3        1 UNL1     0.0854
     37 C         1.241292   -3.183179   0.066568 C.3        1 UNL1     0.0236
     38 C         0.055466   -2.529639   -0.79276 C.3        1 UNL1     0.1131
     39 C         0.39914   -1.620704   -2.040957 C.3        1 UNL1     0.0200
     40 C         1.617692   -0.485283   -1.949357 C.3        1 UNL1     0.0661
     41 C         1.809493   0.669629   -0.721757 C.3        1 UNL1     0.0091
     42 C         3.330176   1.411827   -0.013191 C.3        1 UNL1     0.0661
     43 C         10.156728   -1.37229   4.642585 C.2        1 UNL1     0.2131
     44 O         10.967331   -1.860204   5.409137 O.2        1 UNL1     -0.2851
     45 O         11.521714   -3.521606   3.466941 O.3        1 UNL1     -0.5056
     46 O         5.967617   -1.298414   0.920081 O.2        1 UNL1     -0.2836
     47 C         5.312324   2.486556   -1.439325 C.3        1 UNL1     -0.0566
     48 O         2.822118   2.803104   -0.086273 O.3        1 UNL1     -0.3909
     49 C         0.916424   0.298651   0.441127 C.3        1 UNL1     -0.0577
     50 O         2.867182   -1.06433   -2.26748 O.3        1 UNL1     -0.3910
     51 O         2.216705   -3.838085   -2.177952 O.3        1 UNL1     -0.3753
     52 C         1.874796   -2.455451   1.297029 C.3        1 UNL1     -0.0564
     53 O         -1.124902   -2.110641   0.033979 O.3        1 UNL1     -0.4608
     54 C         -1.886143   -0.990854   -0.177017 C.2        1 UNL1     0.3042
     55 O         -2.246632   -0.164207   0.659966 O.2        1 UNL1     -0.2512
     56 C         -2.244367   -0.770131   -1.619123 C.3        1 UNL1     0.0332
     57 C         0.340322   -2.547447   -3.34321 C.3        1 UNL1     -0.0567
     58 C         5.761947   -4.539407   1.477524 C.3        1 UNL1     0.0210
     59 C         3.240097   -4.502725   -2.917403 C.3        1 UNL1     0.0372
     60 C         3.736598   -3.648352   -0.426733 C.2        1 UNL1     -0.0208
     61 C         4.787585   -3.401686   -1.209884 C.2        1 UNL1     0.0882
     62 H         5.391895   0.789625   -0.136094 H        1 UNL1     0.0365
     63 H         7.159116   1.08016   0.845103 H        1 UNL1     0.0576
     64 H         7.35724   3.948206   1.954985 H        1 UNL1     0.0615
     65 H         9.2046   1.441081   2.198798 H        1 UNL1     0.0622
     66 H         2.173883   -5.015979   -0.514251 H        1 UNL1     0.0645
     67 H         0.704607   -3.97932   0.611259 H        1 UNL1     0.0362
     68 H         -0.393142   -3.443246   -1.2118 H        1 UNL1     0.0741
     69 H         -0.467261   -1.019696   -2.28292 H        1 UNL1     0.0359
     70 H         1.367461   0.134575   -2.831525 H        1 UNL1     0.0600
     71 H         1.249277   1.516685   -1.164037 H        1 UNL1     0.0348
     72 H         3.621923   0.995427   -0.988286 H        1 UNL1     0.0602
     73 H         3.87091   -3.767311   0.619717 H        1 UNL1     0.0628
     74 H         4.726405   -3.209432   -2.28158 H        1 UNL1     0.1022
     75 H         10.66863   3.566196   5.521833 H        1 UNL1     0.0279
     76 H         11.207937   4.549467   4.219672 H        1 UNL1     0.0279
     77 H         9.504383   4.616219   4.826916 H        1 UNL1     0.0279
     78 H         9.671757   1.646579   5.841913 H        1 UNL1     0.1553
     79 H         7.790688   2.035418   5.355488 H        1 UNL1     0.1484
     80 H         4.464918   0.206159   5.175046 H        1 UNL1     0.0317
     81 H         5.944572   -0.564338   5.729015 H        1 UNL1     0.0317
     82 H         6.631203   1.509216   6.962958 H        1 UNL1     0.0428
     83 H         5.067418   0.90818   7.467969 H        1 UNL1     0.0428
     84 H         5.06194   4.176973   4.744349 H        1 UNL1     0.0428
     85 H         6.611447   3.607768   5.258308 H        1 UNL1     0.0428
     86 H         5.804035   2.831354   3.028932 H        1 UNL1     0.0317
     87 H         4.429521   2.065954   3.682557 H        1 UNL1     0.0317
     88 H         3.731194   3.328888   7.732734 H        1 UNL1     0.0429
     89 H         5.43481   3.296096   8.194093 H        1 UNL1     0.0429
     90 H         3.853214   5.354788   6.676471 H        1 UNL1     0.0308
     91 H         6.313279   5.398412   8.504812 H        1 UNL1     0.0233
     92 H         5.703469   6.848513   7.667652 H        1 UNL1     0.0233
     93 H         4.712011   6.035662   8.859662 H        1 UNL1     0.0233
     94 H         6.075622   6.105391   5.551094 H        1 UNL1     0.0233
     95 H         6.513834   4.395791   5.69098 H        1 UNL1     0.0233
     96 H         5.066414   4.869529   4.771993 H        1 UNL1     0.0233
     97 H         10.556735   -5.293601   0.392528 H        1 UNL1     0.0280
     98 H         11.200908   -5.583611   1.985676 H        1 UNL1     0.0280
     99 H         9.519458   -6.062901   1.607872 H        1 UNL1     0.0280
     100 H         11.498218   -3.760437   4.376902 H        1 UNL1     0.2922
     101 H         5.119286   1.733695   -2.203257 H        1 UNL1     0.0236
     102 H         6.273742   2.978361   -1.583501 H        1 UNL1     0.0236
     103 H         4.563084   3.273804   -1.626604 H        1 UNL1     0.0236
     104 H         2.315642   2.88887   -0.917596 H        1 UNL1     0.2098
     105 H         1.282296   -0.530315   1.041764 H        1 UNL1     0.0234
     106 H         0.633079   1.133412   1.082077 H        1 UNL1     0.0234
     107 H         -0.0   0.0   0.0 H        1 UNL1     0.0234
     108 H         3.558858   -0.436749   -1.982008 H        1 UNL1     0.2098
     109 H         2.358894   -3.156621   1.991091 H        1 UNL1     0.0234
     110 H         2.584813   -1.670783   1.014336 H        1 UNL1     0.0234
     111 H         1.116028   -1.927024   1.889466 H        1 UNL1     0.0234
     112 H         -1.876154   0.206112   -1.948843 H        1 UNL1     0.0342
     113 H         -1.869454   -1.566156   -2.260706 H        1 UNL1     0.0342
     114 H         -3.339824   -0.762864   -1.703299 H        1 UNL1     0.0342
     115 H         -0.008938   -1.991858   -4.224417 H        1 UNL1     0.0234
     116 H         1.295046   -3.008938   -3.603163 H        1 UNL1     0.0234
     117 H         -0.418333   -3.346487   -3.280612 H        1 UNL1     0.0234
     118 H         4.891692   -4.015405   1.910057 H        1 UNL1     0.0309
     119 H         5.428862   -5.485667   1.039519 H        1 UNL1     0.0309
     120 H         6.358954   -4.805688   2.356604 H        1 UNL1     0.0309
     121 H         3.340028   -3.991696   -3.874597 H        1 UNL1     0.0524
     122 H         4.219122   -4.455567   -2.412108 H        1 UNL1     0.0524
     123 H         2.974206   -5.544223   -3.074496 H        1 UNL1     0.0524
@<TRIPOS>BOND
     1     1     2    1
     2     1    42    1
     3     2     3    2
     4     3     4    1
     5     4     5    2
     6     5     7    1
     7     6    75    1
     8     6    76    1
     9     6    77    1
    10     7     9   am
    11     9    10    1
    12    10    11    2
    13    10    43    1
    14    11    14    1
    15    11    15    1
    16    12    13   ar
    17    12    27   ar
    18    12    43    1
    19    13    14    1
    20    13    30   ar
    21    14    17    2
    22    15    16    1
    23    16    17    1
    24    16    18    1
    25    16    22    1
    26    18    19    1
    27    19    20    1
    28    20    21    1
    29    21    22    1
    30    23    24    1
    31    23    88    1
    32    23    89    1
    33    24    25    1
    34    24    26    1
    35    24    90    1
    36    25    91    1
    37    25    92    1
    38    25    93    1
    39    26    94    1
    40    26    95    1
    41    26    96    1
    42    27    28   ar
    43    28    29   ar
    44    29    30   ar
    45    29    31    1
    46    30    33    1
    47    31    32    1
    48    32    33    1
    49    32    35    1
    50    34    97    1
    51    34    98    1
    52    34    99    1
    53    35    61    1
    54    36    37    1
    55    36    60    1
    56    37    38    1
    57    38    39    1
    58    39    40    1
    59    40    41    1
    60    41    42    1
    61    45   100    1
    62    47   101    1
    63    47   102    1
    64    47   103    1
    65    48   104    1
    66    49   105    1
    67    49   106    1
    68    49   107    1
    69    50   108    1
    70    51    59    1
    71    52   109    1
    72    52   110    1
    73    52   111    1
    74    53    54    1
    75    54    55    2
    76    54    56    1
    77    56   112    1
    78    56   113    1
    79    56   114    1
    80    57   115    1
    81    57   116    1
    82    57   117    1
    83    58   118    1
    84    58   119    1
    85    58   120    1
    86    59   121    1
    87    59   122    1
    88    59   123    1
    89    60    61    2
    90     1    47    1
    91     1    62    1
    92     2    63    1
    93     3    64    1
    94     4    65    1
    95     5     6    1
    96     7     8    2
    97     9    78    1
    98    15    79    1
    99    18    80    1
   100    18    81    1
   101    19    82    1
   102    19    83    1
   103    20    23    1
   104    21    84    1
   105    21    85    1
   106    22    86    1
   107    22    87    1
   108    27    45    1
   109    28    34    1
   110    32    58    1
   111    33    46    2
   112    36    51    1
   113    36    66    1
   114    37    52    1
   115    37    67    1
   116    38    53    1
   117    38    68    1
   118    42    48    1
   119    42    72    1
   120    43    44    2
   121    60    73    1
   122    61    74    1
   123    39    69    1
   124    39    57    1
   125    40    70    1
   126    40    50    1
   127    41    71    1
   128    41    49    1
