@<TRIPOS>MOLECULE
*****
 123 128 0 0 0
SMALL
GASTEIGER

@<TRIPOS>ATOM
     1 C         2.116741   4.294128   1.57479 C.3        1 UNL1     0.0009
     2 C         1.702488   6.10037   1.520758 C.2        1 UNL1     -0.0787
     3 C         1.99852   7.443998   1.070121 C.2        1 UNL1     -0.0649
     4 C         1.066089   8.841332   1.280806 C.2        1 UNL1     -0.0542
     5 C         0.819498   10.154523   0.809851 C.2        1 UNL1     0.0115
     6 C         1.351349   11.274273   -0.126427 C.3        1 UNL1     -0.0348
     7 C         -0.562664   10.8725   1.198598 C.2        1 UNL1     0.2441
     8 O         -0.647446   11.723426   2.073391 O.2        1 UNL1     -0.2702
     9 N         -1.616198   10.650636   0.294721 N.am        1 UNL1     -0.2772
     10 C         -2.304376   9.507435   0.630617 C.2        1 UNL1     0.1049
     11 C         -1.786273   8.369798   0.204504 C.2        1 UNL1     0.0801
     12 C         -3.385291   8.337338   2.559303 C.ar        1 UNL1     0.0753
     13 C         -2.634914   7.180171   2.176542 C.ar        1 UNL1     0.0305
     14 C         -1.911848   7.122194   0.908131 C.2        1 UNL1     0.0924
     15 N         -0.8041   8.147745   -0.685752 N.pl3        1 UNL1     -0.3170
     16 C         -0.738916   6.73021   -0.923663 C.3        1 UNL1     0.1275
     17 N         -1.254155   6.10896   0.351602 N.2        1 UNL1     -0.2557
     18 C         -1.76993   6.404497   -2.000056 C.3        1 UNL1     0.0016
     19 C         -1.482679   7.260261   -3.223471 C.3        1 UNL1     0.0026
     20 N         -0.132249   6.974261   -3.687767 N.3        1 UNL1     -0.3018
     21 C         0.925329   7.198475   -2.70003 C.3        1 UNL1     0.0026
     22 C         0.619245   6.325713   -1.481632 C.3        1 UNL1     0.0016
     23 C         0.134146   7.506075   -5.009452 C.3        1 UNL1     0.0012
     24 C         -1.052586   7.23625   -5.947864 C.3        1 UNL1     -0.0339
     25 C         -0.583103   6.984701   -7.390211 C.3        1 UNL1     -0.0615
     26 C         -1.881293   6.078186   -5.419743 C.3        1 UNL1     -0.0615
     27 C         -4.169078   8.340946   3.71073 C.ar        1 UNL1     0.1347
     28 C         -4.31223   7.23823   4.533879 C.ar        1 UNL1     0.0342
     29 C         -3.52592   6.126413   4.16409 C.ar        1 UNL1     0.1435
     30 C         -2.708136   6.120494   3.033419 C.ar        1 UNL1     0.0774
     31 O         -3.638204   4.94058   4.801427 O.3        1 UNL1     -0.4436
     32 C         -3.082082   3.983486   3.887331 C.3        1 UNL1     0.3143
     33 C         -2.156685   4.782234   2.991867 C.2        1 UNL1     0.2504
     34 C         -5.322959   7.086199   5.636336 C.3        1 UNL1     -0.0327
     35 O         -2.258344   3.093822   4.65101 O.2        1 UNL1     -0.4528
     36 C         -2.376366   -0.242364   2.84435 C.3        1 UNL1     0.0854
     37 C         -1.992116   -0.58182   1.352826 C.3        1 UNL1     0.0236
     38 C         -0.905583   -1.749125   1.183738 C.3        1 UNL1     0.1131
     39 C         0.447419   -1.68675   2.000907 C.3        1 UNL1     0.0200
     40 C         1.289196   -0.252752   2.133197 C.3        1 UNL1     0.0661
     41 C         1.708496   0.775276   0.850639 C.3        1 UNL1     0.0091
     42 C         1.887351   2.60028   0.797988 C.3        1 UNL1     0.0661
     43 C         -3.372012   9.503646   1.641801 C.2        1 UNL1     0.2131
     44 O         -4.235072   10.362586   1.632551 O.2        1 UNL1     -0.2851
     45 O         -4.831705   9.522615   4.03634 O.3        1 UNL1     -0.5056
     46 O         -1.172818   4.404075   2.39617 O.2        1 UNL1     -0.2836
     47 C         3.319019   4.044783   2.524705 C.3        1 UNL1     -0.0566
     48 O         3.189745   2.566303   0.089657 O.3        1 UNL1     -0.3909
     49 C         0.91832   0.373835   -0.374906 C.3        1 UNL1     -0.0577
     50 O         0.815597   0.507343   3.22667 O.3        1 UNL1     -0.3910
     51 O         -1.601753   -0.873375   3.83895 O.3        1 UNL1     -0.3753
     52 C         -1.989751   0.693396   0.447968 C.3        1 UNL1     -0.0564
     53 O         -0.81788   -2.290182   -0.213363 O.3        1 UNL1     -0.4608
     54 C         0.334252   -2.682095   -0.843382 C.2        1 UNL1     0.3042
     55 O         0.966886   -2.061621   -1.696978 O.2        1 UNL1     -0.2512
     56 C         0.867406   -3.999601   -0.356928 C.3        1 UNL1     0.0332
     57 C         0.251293   -2.560808   3.325947 C.3        1 UNL1     -0.0567
     58 C         -4.261121   3.452287   3.03926 C.3        1 UNL1     0.0210
     59 C         -2.273984   -1.907848   4.555774 C.3        1 UNL1     0.0372
     60 C         -2.397857   1.208975   3.17346 C.2        1 UNL1     -0.0208
     61 C         -1.909788   1.863554   4.228002 C.2        1 UNL1     0.0882
     62 H         1.209505   4.12337   2.1668 H        1 UNL1     0.0365
     63 H         0.841074   6.131825   2.191166 H        1 UNL1     0.0576
     64 H         2.819047   7.648076   0.378603 H        1 UNL1     0.0615
     65 H         0.333802   8.55394   2.040178 H        1 UNL1     0.0622
     66 H         -3.413787   -0.590262   2.948136 H        1 UNL1     0.0645
     67 H         -2.89773   -1.0643   0.945842 H        1 UNL1     0.0362
     68 H         -1.469469   -2.589416   1.61671 H        1 UNL1     0.0741
     69 H         1.16834   -2.342409   1.531022 H        1 UNL1     0.0359
     70 H         2.27095   -0.638209   2.468818 H        1 UNL1     0.0600
     71 H         2.711438   0.375799   0.60268 H        1 UNL1     0.0348
     72 H         1.953283   2.319605   1.859209 H        1 UNL1     0.0602
     73 H         -3.006444   1.718092   2.468002 H        1 UNL1     0.0628
     74 H         -1.231708   1.429437   4.963521 H        1 UNL1     0.1022
     75 H         2.017537   10.844237   -0.912745 H        1 UNL1     0.0279
     76 H         0.608529   11.808024   -0.714983 H        1 UNL1     0.0279
     77 H         2.037345   11.965673   0.384529 H        1 UNL1     0.0279
     78 H         -1.240923   10.518168   -0.642134 H        1 UNL1     0.1553
     79 H         -0.49816   8.826589   -1.358436 H        1 UNL1     0.1484
     80 H         -1.713719   5.335187   -2.237083 H        1 UNL1     0.0317
     81 H         -2.786404   6.592253   -1.637868 H        1 UNL1     0.0317
     82 H         -1.60908   8.331796   -3.009584 H        1 UNL1     0.0428
     83 H         -2.230417   7.013376   -3.977784 H        1 UNL1     0.0428
     84 H         1.919761   6.900844   -3.046921 H        1 UNL1     0.0428
     85 H         1.036175   8.263716   -2.454488 H        1 UNL1     0.0428
     86 H         1.476521   6.413038   -0.840196 H        1 UNL1     0.0317
     87 H         0.62366   5.267026   -1.768439 H        1 UNL1     0.0317
     88 H         0.269007   8.59193   -4.919872 H        1 UNL1     0.0429
     89 H         1.066124   7.099242   -5.422584 H        1 UNL1     0.0429
     90 H         -1.718569   8.107265   -5.944319 H        1 UNL1     0.0308
     91 H         0.478695   7.220126   -7.509635 H        1 UNL1     0.0233
     92 H         -0.754129   5.944238   -7.676211 H        1 UNL1     0.0233
     93 H         -1.128451   7.595896   -8.119505 H        1 UNL1     0.0233
     94 H         -1.751364   5.198294   -6.059075 H        1 UNL1     0.0233
     95 H         -1.55289   5.813263   -4.410818 H        1 UNL1     0.0233
     96 H         -2.945168   6.329692   -5.390029 H        1 UNL1     0.0233
     97 H         -6.002585   6.258925   5.454798 H        1 UNL1     0.0280
     98 H         -4.850332   6.879741   6.605488 H        1 UNL1     0.0280
     99 H         -5.918151   8.010114   5.721322 H        1 UNL1     0.0280
     100 H         -4.602139   9.881823   4.875322 H        1 UNL1     0.2922
     101 H         3.106748   4.469378   3.505683 H        1 UNL1     0.0236
     102 H         4.26575   4.401789   2.12069 H        1 UNL1     0.0236
     103 H         3.481469   2.970539   2.713918 H        1 UNL1     0.0236
     104 H         3.702272   1.816578   0.450488 H        1 UNL1     0.2098
     105 H         0.692183   1.193782   -1.051929 H        1 UNL1     0.0234
     106 H         1.33245   -0.469266   -0.927722 H        1 UNL1     0.0234
     107 H         0.0   -0.0   0.0 H        1 UNL1     0.0234
     108 H         0.827248   -0.074363   4.011049 H        1 UNL1     0.2098
     109 H         -2.975917   1.176682   0.407664 H        1 UNL1     0.0234
     110 H         -1.23314   1.428648   0.742395 H        1 UNL1     0.0234
     111 H         -1.734781   0.451026   -0.592317 H        1 UNL1     0.0234
     112 H         1.795358   -4.24279   -0.883342 H        1 UNL1     0.0342
     113 H         1.016415   -4.007988   0.721761 H        1 UNL1     0.0342
     114 H         0.130036   -4.777894   -0.597158 H        1 UNL1     0.0342
     115 H         1.185273   -3.050657   3.634037 H        1 UNL1     0.0234
     116 H         -0.119368   -1.992883   4.181587 H        1 UNL1     0.0234
     117 H         -0.409898   -3.432912   3.183812 H        1 UNL1     0.0234
     118 H         -4.500253   2.400404   3.274557 H        1 UNL1     0.0309
     119 H         -5.16835   4.056669   3.138557 H        1 UNL1     0.0309
     120 H         -4.030319   3.425435   1.968692 H        1 UNL1     0.0309
     121 H         -1.826203   -1.966402   5.54745 H        1 UNL1     0.0524
     122 H         -3.347847   -1.695128   4.688459 H        1 UNL1     0.0524
     123 H         -2.163804   -2.856537   4.038141 H        1 UNL1     0.0524
@<TRIPOS>BOND
     1     1     2    1
     2     1    42    1
     3     2     3    2
     4     3     4    1
     5     4     5    2
     6     5     7    1
     7     6    75    1
     8     6    76    1
     9     6    77    1
    10     7     9   am
    11     9    10    1
    12    10    11    2
    13    10    43    1
    14    11    14    1
    15    11    15    1
    16    12    13   ar
    17    12    27   ar
    18    12    43    1
    19    13    14    1
    20    13    30   ar
    21    14    17    2
    22    15    16    1
    23    16    17    1
    24    16    18    1
    25    16    22    1
    26    18    19    1
    27    19    20    1
    28    20    21    1
    29    21    22    1
    30    23    24    1
    31    23    88    1
    32    23    89    1
    33    24    25    1
    34    24    26    1
    35    24    90    1
    36    25    91    1
    37    25    92    1
    38    25    93    1
    39    26    94    1
    40    26    95    1
    41    26    96    1
    42    27    28   ar
    43    28    29   ar
    44    29    30   ar
    45    29    31    1
    46    30    33    1
    47    31    32    1
    48    32    33    1
    49    32    35    1
    50    34    97    1
    51    34    98    1
    52    34    99    1
    53    35    61    1
    54    36    37    1
    55    36    60    1
    56    37    38    1
    57    38    39    1
    58    39    40    1
    59    40    41    1
    60    41    42    1
    61    45   100    1
    62    47   101    1
    63    47   102    1
    64    47   103    1
    65    48   104    1
    66    49   105    1
    67    49   106    1
    68    49   107    1
    69    50   108    1
    70    51    59    1
    71    52   109    1
    72    52   110    1
    73    52   111    1
    74    53    54    1
    75    54    55    2
    76    54    56    1
    77    56   112    1
    78    56   113    1
    79    56   114    1
    80    57   115    1
    81    57   116    1
    82    57   117    1
    83    58   118    1
    84    58   119    1
    85    58   120    1
    86    59   121    1
    87    59   122    1
    88    59   123    1
    89    60    61    2
    90     1    47    1
    91     1    62    1
    92     2    63    1
    93     3    64    1
    94     4    65    1
    95     5     6    1
    96     7     8    2
    97     9    78    1
    98    15    79    1
    99    18    80    1
   100    18    81    1
   101    19    82    1
   102    19    83    1
   103    20    23    1
   104    21    84    1
   105    21    85    1
   106    22    86    1
   107    22    87    1
   108    27    45    1
   109    28    34    1
   110    32    58    1
   111    33    46    2
   112    36    51    1
   113    36    66    1
   114    37    52    1
   115    37    67    1
   116    38    53    1
   117    38    68    1
   118    42    48    1
   119    42    72    1
   120    43    44    2
   121    60    73    1
   122    61    74    1
   123    39    69    1
   124    39    57    1
   125    40    70    1
   126    40    50    1
   127    41    71    1
   128    41    49    1
