@<TRIPOS>MOLECULE
*****
 123 128 0 0 0
SMALL
GASTEIGER

@<TRIPOS>ATOM
     1 C         3.110959   1.189367   -4.16829 C.3        1 UNL1     0.0009
     2 C         3.238134   2.356221   -5.603322 C.2        1 UNL1     -0.0787
     3 C         3.217807   2.598956   -7.030456 C.2        1 UNL1     -0.0649
     4 C         3.287364   4.087589   -7.833881 C.2        1 UNL1     -0.0542
     5 C         3.018369   4.764937   -9.048755 C.2        1 UNL1     0.0115
     6 C         2.620649   4.565636   -10.537184 C.3        1 UNL1     -0.0348
     7 C         2.92963   6.367766   -9.041383 C.2        1 UNL1     0.2441
     8 O         3.836216   7.086236   -9.439415 O.2        1 UNL1     -0.2702
     9 N         1.646483   6.885467   -8.793047 N.am        1 UNL1     -0.2772
     10 C         1.440787   7.030669   -7.440299 C.2        1 UNL1     0.1049
     11 C         1.057819   5.946756   -6.790153 C.2        1 UNL1     0.0801
     12 C         2.484379   7.954637   -5.363153 C.ar        1 UNL1     0.0753
     13 C         2.232436   6.67968   -4.763473 C.ar        1 UNL1     0.0305
     14 C         1.392272   5.679047   -5.41762 C.2        1 UNL1     0.0924
     15 N         0.629916   4.762889   -7.261202 N.pl3        1 UNL1     -0.3170
     16 C         0.173056   3.983557   -6.141303 C.3        1 UNL1     0.1275
     17 N         0.974975   4.497891   -4.970786 N.2        1 UNL1     -0.2557
     18 C         -1.274193   4.384296   -5.871897 C.3        1 UNL1     0.0016
     19 C         -2.079381   4.184483   -7.145999 C.3        1 UNL1     0.0026
     20 N         -1.988055   2.786129   -7.542604 N.3        1 UNL1     -0.3018
     21 C         -0.628171   2.29046   -7.764856 C.3        1 UNL1     0.0026
     22 C         0.161488   2.496733   -6.471108 C.3        1 UNL1     0.0016
     23 C         -2.951515   2.425428   -8.563526 C.3        1 UNL1     0.0012
     24 C         -2.234386   1.990877   -9.851411 C.3        1 UNL1     -0.0339
     25 C         -0.706382   2.030485   -9.684994 C.3        1 UNL1     -0.0615
     26 C         -2.714958   0.614048   -10.275877 C.3        1 UNL1     -0.0615
     27 C         3.184871   8.947047   -4.681572 C.ar        1 UNL1     0.1347
     28 C         3.646204   8.795763   -3.386066 C.ar        1 UNL1     0.0342
     29 C         3.429393   7.515443   -2.833852 C.ar        1 UNL1     0.1435
     30 C         2.761004   6.499508   -3.518214 C.ar        1 UNL1     0.0774
     31 O         3.722233   7.245937   -1.542877 O.3        1 UNL1     -0.4436
     32 C         2.955516   6.072083   -1.234516 C.3        1 UNL1     0.3143
     33 C         2.695473   5.406447   -2.570749 C.2        1 UNL1     0.2504
     34 C         4.179247   9.892093   -2.506279 C.3        1 UNL1     -0.0327
     35 O         3.805319   5.19207   -0.488417 O.2        1 UNL1     -0.4528
     36 C         1.508439   3.223526   1.804455 C.3        1 UNL1     0.0854
     37 C         0.275389   2.311796   1.435864 C.3        1 UNL1     0.0236
     38 C         0.350838   0.812535   2.000015 C.3        1 UNL1     0.1131
     39 C         1.650251   -0.054981   1.752608 C.3        1 UNL1     0.0200
     40 C         2.391951   -0.058497   0.258518 C.3        1 UNL1     0.0661
     41 C         1.621914   -0.306416   -1.232519 C.3        1 UNL1     0.0091
     42 C         1.999577   0.372634   -2.894344 C.3        1 UNL1     0.0661
     43 C         1.897518   8.216759   -6.700743 C.2        1 UNL1     0.2131
     44 O         1.696751   9.334419   -7.140362 O.2        1 UNL1     -0.2851
     45 O         3.427016   10.14324   -5.353825 O.3        1 UNL1     -0.5056
     46 O         2.500369   4.234427   -2.803467 O.2        1 UNL1     -0.2836
     47 C         4.406195   0.342454   -4.045472 C.3        1 UNL1     -0.0566
     48 O         1.902279   -0.939715   -3.578003 O.3        1 UNL1     -0.3909
     49 C         0.127174   -0.18575   -1.03583 C.3        1 UNL1     -0.0577
     50 O         3.314614   1.00715   0.154526 O.3        1 UNL1     -0.3910
     51 O         2.593014   2.571317   2.425544 O.3        1 UNL1     -0.3753
     52 C         -0.28383   2.637107   0.012348 C.3        1 UNL1     -0.0564
     53 O         -0.95974   0.083389   1.944717 O.3        1 UNL1     -0.4608
     54 C         -1.865033   0.151861   0.918224 C.2        1 UNL1     0.3042
     55 O         -2.087598   -0.701726   0.060499 O.2        1 UNL1     -0.2512
     56 C         -2.68725   1.409095   0.924358 C.3        1 UNL1     0.0332
     57 C         2.580084   0.089517   3.045939 C.3        1 UNL1     -0.0567
     58 C         1.610641   6.568036   -0.654111 C.3        1 UNL1     0.0210
     59 C         3.722324   2.350319   1.58193 C.3        1 UNL1     0.0372
     60 C         2.071028   4.008354   0.671892 C.2        1 UNL1     -0.0208
     61 C         3.337103   4.20825   0.303327 C.2        1 UNL1     0.0882
     62 H         3.229122   2.042215   -3.489026 H        1 UNL1     0.0365
     63 H         3.483855   3.286964   -5.087756 H        1 UNL1     0.0576
     64 H         2.981595   1.805288   -7.742779 H        1 UNL1     0.0615
     65 H         3.604497   4.788485   -7.056928 H        1 UNL1     0.0622
     66 H         1.104291   3.961829   2.511292 H        1 UNL1     0.0645
     67 H         -0.554444   2.729213   2.03227 H        1 UNL1     0.0362
     68 H         0.341154   1.021892   3.08057 H        1 UNL1     0.0741
     69 H         1.404889   -1.098567   1.897984 H        1 UNL1     0.0359
     70 H         3.023171   -0.961878   0.361108 H        1 UNL1     0.0600
     71 H         1.740002   -1.403372   -1.331012 H        1 UNL1     0.0348
     72 H         2.917168   0.495511   -2.300843 H        1 UNL1     0.0602
     73 H         1.289067   4.548993   0.19914 H        1 UNL1     0.0628
     74 H         4.188995   3.652809   0.697032 H        1 UNL1     0.1022
     75 H         1.513236   4.639791   -10.660354 H        1 UNL1     0.0279
     76 H         2.985022   5.310889   -11.240675 H        1 UNL1     0.0279
     77 H         2.810573   3.543043   -10.894861 H        1 UNL1     0.0279
     78 H         0.942954   6.237951   -9.142112 H        1 UNL1     0.1553
     79 H         0.288488   4.625392   -8.194719 H        1 UNL1     0.1484
     80 H         -1.66712   3.77381   -5.049897 H        1 UNL1     0.0317
     81 H         -1.336909   5.427802   -5.545073 H        1 UNL1     0.0317
     82 H         -1.735686   4.848086   -7.953104 H        1 UNL1     0.0428
     83 H         -3.107606   4.477826   -6.932102 H        1 UNL1     0.0428
     84 H         -0.582073   1.219036   -7.983343 H        1 UNL1     0.0428
     85 H         -0.159257   2.761582   -8.639774 H        1 UNL1     0.0428
     86 H         1.104018   2.005063   -6.625657 H        1 UNL1     0.0317
     87 H         -0.295142   1.920109   -5.657419 H        1 UNL1     0.0317
     88 H         -3.5436   1.57941   -8.190719 H        1 UNL1     0.0429
     89 H         -3.652383   3.24732   -8.758591 H        1 UNL1     0.0429
     90 H         -2.514715   2.670038   -10.665271 H        1 UNL1     0.0308
     91 H         -0.36482   3.025155   -9.383219 H        1 UNL1     0.0233
     92 H         -0.379551   1.298542   -8.942667 H        1 UNL1     0.0233
     93 H         -0.178565   1.780988   -10.613431 H        1 UNL1     0.0233
     94 H         -1.868696   -0.078562   -10.338871 H        1 UNL1     0.0233
     95 H         -3.418882   0.219957   -9.537538 H        1 UNL1     0.0233
     96 H         -3.20811   0.646739   -11.251429 H        1 UNL1     0.0233
     97 H         5.201848   9.702808   -2.193727 H        1 UNL1     0.0280
     98 H         4.196491   10.862673   -3.019051 H        1 UNL1     0.0280
     99 H         3.552422   9.97859   -1.60367 H        1 UNL1     0.0280
     100 H         2.656441   10.649812   -5.541496 H        1 UNL1     0.2922
     101 H         4.985681   0.67937   -3.186206 H        1 UNL1     0.0236
     102 H         4.999047   0.330876   -4.959461 H        1 UNL1     0.0236
     103 H         4.189046   -0.718658   -3.837911 H        1 UNL1     0.0236
     104 H         2.493448   -0.911738   -4.355632 H        1 UNL1     0.2098
     105 H         -0.332569   0.635417   -1.58001 H        1 UNL1     0.0234
     106 H         -0.429864   -1.107746   -1.20184 H        1 UNL1     0.0234
     107 H         -0.0   0.0   0.0 H        1 UNL1     0.0234
     108 H         2.929886   1.77103   0.625949 H        1 UNL1     0.2098
     109 H         -1.181693   3.269506   0.052668 H        1 UNL1     0.0234
     110 H         0.459518   3.097801   -0.64715 H        1 UNL1     0.0234
     111 H         -0.585529   1.726299   -0.521836 H        1 UNL1     0.0234
     112 H         -2.951095   1.686226   -0.10079 H        1 UNL1     0.0342
     113 H         -3.577204   1.313398   1.544574 H        1 UNL1     0.0342
     114 H         -2.074005   2.218057   1.344686 H        1 UNL1     0.0342
     115 H         2.99881   -0.877177   3.357963 H        1 UNL1     0.0234
     116 H         3.413932   0.782616   2.918022 H        1 UNL1     0.0234
     117 H         2.027465   0.385512   3.954201 H        1 UNL1     0.0234
     118 H         0.991989   5.736882   -0.27272 H        1 UNL1     0.0309
     119 H         1.733308   7.315218   0.136379 H        1 UNL1     0.0309
     120 H         0.97077   7.03162   -1.4129 H        1 UNL1     0.0309
     121 H         3.941175   1.282969   1.596886 H        1 UNL1     0.0524
     122 H         3.524235   2.633936   0.534858 H        1 UNL1     0.0524
     123 H         4.577832   2.913473   1.943948 H        1 UNL1     0.0524
@<TRIPOS>BOND
     1     1     2    1
     2     1    42    1
     3     2     3    2
     4     3     4    1
     5     4     5    2
     6     5     7    1
     7     6    75    1
     8     6    76    1
     9     6    77    1
    10     7     9   am
    11     9    10    1
    12    10    11    2
    13    10    43    1
    14    11    14    1
    15    11    15    1
    16    12    13   ar
    17    12    27   ar
    18    12    43    1
    19    13    14    1
    20    13    30   ar
    21    14    17    2
    22    15    16    1
    23    16    17    1
    24    16    18    1
    25    16    22    1
    26    18    19    1
    27    19    20    1
    28    20    21    1
    29    21    22    1
    30    23    24    1
    31    23    88    1
    32    23    89    1
    33    24    25    1
    34    24    26    1
    35    24    90    1
    36    25    91    1
    37    25    92    1
    38    25    93    1
    39    26    94    1
    40    26    95    1
    41    26    96    1
    42    27    28   ar
    43    28    29   ar
    44    29    30   ar
    45    29    31    1
    46    30    33    1
    47    31    32    1
    48    32    33    1
    49    32    35    1
    50    34    97    1
    51    34    98    1
    52    34    99    1
    53    35    61    1
    54    36    37    1
    55    36    60    1
    56    37    38    1
    57    38    39    1
    58    39    40    1
    59    40    41    1
    60    41    42    1
    61    45   100    1
    62    47   101    1
    63    47   102    1
    64    47   103    1
    65    48   104    1
    66    49   105    1
    67    49   106    1
    68    49   107    1
    69    50   108    1
    70    51    59    1
    71    52   109    1
    72    52   110    1
    73    52   111    1
    74    53    54    1
    75    54    55    2
    76    54    56    1
    77    56   112    1
    78    56   113    1
    79    56   114    1
    80    57   115    1
    81    57   116    1
    82    57   117    1
    83    58   118    1
    84    58   119    1
    85    58   120    1
    86    59   121    1
    87    59   122    1
    88    59   123    1
    89    60    61    2
    90     1    47    1
    91     1    62    1
    92     2    63    1
    93     3    64    1
    94     4    65    1
    95     5     6    1
    96     7     8    2
    97     9    78    1
    98    15    79    1
    99    18    80    1
   100    18    81    1
   101    19    82    1
   102    19    83    1
   103    20    23    1
   104    21    84    1
   105    21    85    1
   106    22    86    1
   107    22    87    1
   108    27    45    1
   109    28    34    1
   110    32    58    1
   111    33    46    2
   112    36    51    1
   113    36    66    1
   114    37    52    1
   115    37    67    1
   116    38    53    1
   117    38    68    1
   118    42    48    1
   119    42    72    1
   120    43    44    2
   121    60    73    1
   122    61    74    1
   123    39    69    1
   124    39    57    1
   125    40    70    1
   126    40    50    1
   127    41    71    1
   128    41    49    1
