@<TRIPOS>MOLECULE
*****
 123 128 0 0 0
SMALL
GASTEIGER

@<TRIPOS>ATOM
     1 C         5.140695   1.816276   0.52313 C.3        1 UNL1     0.0009
     2 C         6.570473   2.644934   -0.317167 C.2        1 UNL1     -0.0787
     3 C         7.856755   2.566586   -0.977004 C.2        1 UNL1     -0.0649
     4 C         8.72111   3.816323   -1.723602 C.2        1 UNL1     -0.0542
     5 C         9.741615   4.126299   -2.656105 C.2        1 UNL1     0.0115
     6 C         10.882305   3.51945   -3.518592 C.3        1 UNL1     -0.0348
     7 C         9.819876   5.613039   -3.256496 C.2        1 UNL1     0.2441
     8 O         10.630778   6.444236   -2.871688 O.2        1 UNL1     -0.2702
     9 N         9.07259   5.814413   -4.430021 N.am        1 UNL1     -0.2772
     10 C         7.78328   6.182576   -4.121058 C.2        1 UNL1     0.1049
     11 C         6.949267   5.198745   -3.836946 C.2        1 UNL1     0.0801
     12 C         6.456558   7.766138   -2.710571 C.ar        1 UNL1     0.0753
     13 C         5.710623   6.626386   -2.271079 C.ar        1 UNL1     0.0305
     14 C         5.848256   5.324882   -2.920845 C.2        1 UNL1     0.0924
     15 N         7.090556   3.872163   -4.000485 N.pl3        1 UNL1     -0.3170
     16 C         5.827388   3.254744   -3.694785 C.3        1 UNL1     0.1275
     17 N         5.173449   4.197529   -2.714355 N.2        1 UNL1     -0.2557
     18 C         4.979927   3.307213   -4.962365 C.3        1 UNL1     0.0016
     19 C         5.749397   2.637713   -6.089873 C.3        1 UNL1     0.0026
     20 N         6.036226   1.261891   -5.707942 N.3        1 UNL1     -0.3018
     21 C         6.795688   1.106997   -4.465527 C.3        1 UNL1     0.0026
     22 C         6.002306   1.782633   -3.345726 C.3        1 UNL1     0.0016
     23 C         6.497088   0.452707   -6.81856 C.3        1 UNL1     0.0012
     24 C         5.349862   0.191499   -7.807195 C.3        1 UNL1     -0.0339
     25 C         5.438457   1.120029   -9.029503 C.3        1 UNL1     -0.0615
     26 C         5.33761   -1.271192   -8.216053 C.3        1 UNL1     -0.0615
     27 C         6.232228   9.028867   -2.167147 C.ar        1 UNL1     0.1347
     28 C         5.265003   9.281769   -1.210816 C.ar        1 UNL1     0.0342
     29 C         4.576584   8.136207   -0.758123 C.ar        1 UNL1     0.1435
     30 C         4.815724   6.859213   -1.267355 C.ar        1 UNL1     0.0774
     31 O         3.530053   8.232453   0.090709 O.3        1 UNL1     -0.4436
     32 C         2.825752   6.990589   -0.059648 C.3        1 UNL1     0.3143
     33 C         3.854897   6.013276   -0.59062 C.2        1 UNL1     0.2504
     34 C         4.797672   10.640022   -0.767139 C.3        1 UNL1     -0.0327
     35 O         2.464694   6.543994   1.253152 O.2        1 UNL1     -0.4528
     36 C         -0.750063   4.569876   0.833296 C.3        1 UNL1     0.0854
     37 C         -1.034022   3.308769   -0.070308 C.3        1 UNL1     0.0236
     38 C         -1.621315   2.036724   0.709905 C.3        1 UNL1     0.1131
     39 C         -0.894745   1.510589   2.012805 C.3        1 UNL1     0.0200
     40 C         0.768041   1.38726   2.061508 C.3        1 UNL1     0.0661
     41 C         1.743305   0.635928   0.894473 C.3        1 UNL1     0.0091
     42 C         3.448547   1.02361   0.340167 C.3        1 UNL1     0.0661
     43 C         7.414702   7.575568   -3.827667 C.2        1 UNL1     0.2131
     44 O         7.805899   8.481711   -4.540833 O.2        1 UNL1     -0.2851
     45 O         7.032668   10.076574   -2.61775 O.3        1 UNL1     -0.5056
     46 O         3.886477   4.80957   -0.464329 O.2        1 UNL1     -0.2836
     47 C         5.53588   1.386633   1.961608 C.3        1 UNL1     -0.0566
     48 O         3.91569   -0.381635   0.418788 O.3        1 UNL1     -0.3909
     49 C         0.918309   0.396911   -0.350415 C.3        1 UNL1     -0.0577
     50 O         1.349872   2.611568   2.46184 O.3        1 UNL1     -0.3910
     51 O         -0.878282   4.373189   2.22337 O.3        1 UNL1     -0.3753
     52 C         0.018037   3.166811   -1.218336 C.3        1 UNL1     -0.0564
     53 O         -2.205521   0.993198   -0.196782 O.3        1 UNL1     -0.4608
     54 C         -2.392563   -0.325563   0.125422 C.2        1 UNL1     0.3042
     55 O         -1.794225   -1.298355   -0.332294 O.2        1 UNL1     -0.2512
     56 C         -3.416349   -0.541946   1.203269 C.3        1 UNL1     0.0332
     57 C         -1.630786   2.164957   3.273052 C.3        1 UNL1     -0.0567
     58 C         1.752582   7.225359   -1.148095 C.3        1 UNL1     0.0210
     59 C         -1.210898   5.545014   2.966376 C.3        1 UNL1     0.0372
     60 C         0.571428   5.217672   0.611529 C.2        1 UNL1     -0.0208
     61 C         1.474221   5.661802   1.487005 C.2        1 UNL1     0.0882
     62 H         4.651141   2.793612   0.611806 H        1 UNL1     0.0365
     63 H         6.289545   3.694641   -0.209173 H        1 UNL1     0.0576
     64 H         8.328455   1.606841   -1.19948 H        1 UNL1     0.0615
     65 H         8.220073   4.72374   -1.375696 H        1 UNL1     0.0622
     66 H         -1.503205   5.307503   0.522282 H        1 UNL1     0.0645
     67 H         -1.900711   3.608808   -0.684627 H        1 UNL1     0.0362
     68 H         -2.575867   2.45946   1.058684 H        1 UNL1     0.0741
     69 H         -1.213548   0.494378   2.202768 H        1 UNL1     0.0359
     70 H         0.884466   0.725109   2.940747 H        1 UNL1     0.0600
     71 H         1.798591   -0.386193   1.317758 H        1 UNL1     0.0348
     72 H         3.331387   1.506575   1.321153 H        1 UNL1     0.0602
     73 H         0.691638   5.420474   -0.423686 H        1 UNL1     0.0628
     74 H         1.454372   5.446809   2.55594 H        1 UNL1     0.1022
     75 H         10.92248   2.410733   -3.391449 H        1 UNL1     0.0279
     76 H         10.785874   3.628291   -4.596517 H        1 UNL1     0.0279
     77 H         11.882609   3.81415   -3.168958 H        1 UNL1     0.0279
     78 H         9.024841   4.945732   -4.958407 H        1 UNL1     0.1553
     79 H         7.764493   3.455539   -4.61625 H        1 UNL1     0.1484
     80 H         4.024426   2.802646   -4.774759 H        1 UNL1     0.0317
     81 H         4.740675   4.341857   -5.230547 H        1 UNL1     0.0317
     82 H         6.673998   3.182439   -6.331327 H        1 UNL1     0.0428
     83 H         5.127852   2.687865   -6.984422 H        1 UNL1     0.0428
     84 H         6.928562   0.064578   -4.159719 H        1 UNL1     0.0428
     85 H         7.821215   1.489253   -4.56295 H        1 UNL1     0.0428
     86 H         6.517685   1.535755   -2.436097 H        1 UNL1     0.0317
     87 H         5.028796   1.291383   -3.2272 H        1 UNL1     0.0317
     88 H         7.288303   1.007188   -7.339926 H        1 UNL1     0.0429
     89 H         6.940696   -0.4885   -6.46911 H        1 UNL1     0.0429
     90 H         4.393017   0.369365   -7.302194 H        1 UNL1     0.0308
     91 H         6.397867   1.010025   -9.543833 H        1 UNL1     0.0233
     92 H         4.628642   0.911448   -9.73257 H        1 UNL1     0.0233
     93 H         5.342616   2.17827   -8.757887 H        1 UNL1     0.0233
     94 H         4.66695   -1.419245   -9.069359 H        1 UNL1     0.0233
     95 H         6.341323   -1.583154   -8.518053 H        1 UNL1     0.0233
     96 H         5.000519   -1.911848   -7.396359 H        1 UNL1     0.0233
     97 H         3.995268   10.576808   -0.03818 H        1 UNL1     0.0280
     98 H         5.597991   11.2156   -0.283966 H        1 UNL1     0.0280
     99 H         4.429375   11.206313   -1.638212 H        1 UNL1     0.0280
     100 H         6.557595   10.834723   -2.909536 H        1 UNL1     0.2922
     101 H         4.673255   0.950842   2.465215 H        1 UNL1     0.0236
     102 H         5.984139   2.192528   2.541762 H        1 UNL1     0.0236
     103 H         6.293813   0.585552   1.961052 H        1 UNL1     0.0236
     104 H         4.327312   -0.506973   1.296187 H        1 UNL1     0.2098
     105 H         0.696325   1.294992   -0.921366 H        1 UNL1     0.0234
     106 H         1.301432   -0.383545   -1.007706 H        1 UNL1     0.0234
     107 H         0.0   -0.0   0.0 H        1 UNL1     0.0234
     108 H         1.197688   3.254086   1.742271 H        1 UNL1     0.2098
     109 H         1.043753   3.078093   -0.833958 H        1 UNL1     0.0234
     110 H         -0.193238   2.33172   -1.894893 H        1 UNL1     0.0234
     111 H         0.021783   4.047008   -1.874983 H        1 UNL1     0.0234
     112 H         -3.501678   -1.609755   1.426541 H        1 UNL1     0.0342
     113 H         -3.190638   0.028516   2.102975 H        1 UNL1     0.0342
     114 H         -4.389343   -0.197899   0.826333 H        1 UNL1     0.0342
     115 H         -2.699772   1.912324   3.298211 H        1 UNL1     0.0234
     116 H         -1.202779   1.877805   4.23555 H        1 UNL1     0.0234
     117 H         -1.673135   3.267069   3.234372 H        1 UNL1     0.0234
     118 H         0.841245   7.69425   -0.73747 H        1 UNL1     0.0309
     119 H         2.116704   7.825368   -1.988099 H        1 UNL1     0.0309
     120 H         1.381985   6.290064   -1.58167 H        1 UNL1     0.0309
     121 H         -0.381714   6.244941   2.866813 H        1 UNL1     0.0524
     122 H         -2.114719   6.04377   2.578576 H        1 UNL1     0.0524
     123 H         -1.367152   5.295316   4.012 H        1 UNL1     0.0524
@<TRIPOS>BOND
     1     1     2    1
     2     1    42    1
     3     2     3    2
     4     3     4    1
     5     4     5    2
     6     5     7    1
     7     6    75    1
     8     6    76    1
     9     6    77    1
    10     7     9   am
    11     9    10    1
    12    10    11    2
    13    10    43    1
    14    11    14    1
    15    11    15    1
    16    12    13   ar
    17    12    27   ar
    18    12    43    1
    19    13    14    1
    20    13    30   ar
    21    14    17    2
    22    15    16    1
    23    16    17    1
    24    16    18    1
    25    16    22    1
    26    18    19    1
    27    19    20    1
    28    20    21    1
    29    21    22    1
    30    23    24    1
    31    23    88    1
    32    23    89    1
    33    24    25    1
    34    24    26    1
    35    24    90    1
    36    25    91    1
    37    25    92    1
    38    25    93    1
    39    26    94    1
    40    26    95    1
    41    26    96    1
    42    27    28   ar
    43    28    29   ar
    44    29    30   ar
    45    29    31    1
    46    30    33    1
    47    31    32    1
    48    32    33    1
    49    32    35    1
    50    34    97    1
    51    34    98    1
    52    34    99    1
    53    35    61    1
    54    36    37    1
    55    36    60    1
    56    37    38    1
    57    38    39    1
    58    39    40    1
    59    40    41    1
    60    41    42    1
    61    45   100    1
    62    47   101    1
    63    47   102    1
    64    47   103    1
    65    48   104    1
    66    49   105    1
    67    49   106    1
    68    49   107    1
    69    50   108    1
    70    51    59    1
    71    52   109    1
    72    52   110    1
    73    52   111    1
    74    53    54    1
    75    54    55    2
    76    54    56    1
    77    56   112    1
    78    56   113    1
    79    56   114    1
    80    57   115    1
    81    57   116    1
    82    57   117    1
    83    58   118    1
    84    58   119    1
    85    58   120    1
    86    59   121    1
    87    59   122    1
    88    59   123    1
    89    60    61    2
    90     1    47    1
    91     1    62    1
    92     2    63    1
    93     3    64    1
    94     4    65    1
    95     5     6    1
    96     7     8    2
    97     9    78    1
    98    15    79    1
    99    18    80    1
   100    18    81    1
   101    19    82    1
   102    19    83    1
   103    20    23    1
   104    21    84    1
   105    21    85    1
   106    22    86    1
   107    22    87    1
   108    27    45    1
   109    28    34    1
   110    32    58    1
   111    33    46    2
   112    36    51    1
   113    36    66    1
   114    37    52    1
   115    37    67    1
   116    38    53    1
   117    38    68    1
   118    42    48    1
   119    42    72    1
   120    43    44    2
   121    60    73    1
   122    61    74    1
   123    39    69    1
   124    39    57    1
   125    40    70    1
   126    40    50    1
   127    41    71    1
   128    41    49    1
