@<TRIPOS>MOLECULE
*****
 123 128 0 0 0
SMALL
GASTEIGER

@<TRIPOS>ATOM
     1 C         5.169109   1.742944   0.491664 C.3        1 UNL1     0.0009
     2 C         6.607041   2.546685   -0.358858 C.2        1 UNL1     -0.0787
     3 C         7.889017   2.446456   -1.024094 C.2        1 UNL1     -0.0649
     4 C         8.768196   3.679955   -1.780322 C.2        1 UNL1     -0.0542
     5 C         9.788878   3.970667   -2.718817 C.2        1 UNL1     0.0115
     6 C         10.916604   3.343216   -3.583607 C.3        1 UNL1     -0.0348
     7 C         9.886198   5.453351   -3.326407 C.2        1 UNL1     0.2441
     8 O         10.710947   6.274291   -2.949083 O.2        1 UNL1     -0.2702
     9 N         9.136607   5.66034   -4.497483 N.am        1 UNL1     -0.2772
     10 C         7.854256   6.048799   -4.184437 C.2        1 UNL1     0.1049
     11 C         7.007207   5.078624   -3.892048 C.2        1 UNL1     0.0801
     12 C         6.557339   7.658073   -2.775331 C.ar        1 UNL1     0.0753
     13 C         5.79678   6.531408   -2.32724 C.ar        1 UNL1     0.0305
     14 C         5.91235   5.225082   -2.971606 C.2        1 UNL1     0.0924
     15 N         7.12828   3.74938   -4.050097 N.pl3        1 UNL1     -0.3170
     16 C         5.857599   3.151975   -3.735884 C.3        1 UNL1     0.1275
     17 N         5.22203   4.108712   -2.756889 N.2        1 UNL1     -0.2557
     18 C         5.005233   3.21112   -4.999876 C.3        1 UNL1     0.0016
     19 C         5.759656   2.525271   -6.127726 C.3        1 UNL1     0.0026
     20 N         6.028015   1.147136   -5.740742 N.3        1 UNL1     -0.3018
     21 C         6.790775   0.986757   -4.501047 C.3        1 UNL1     0.0026
     22 C         6.012498   1.679057   -3.380825 C.3        1 UNL1     0.0016
     23 C         6.471895   0.326229   -6.849671 C.3        1 UNL1     0.0012
     24 C         5.316469   0.077403   -7.831931 C.3        1 UNL1     -0.0339
     25 C         5.393616   1.022813   -9.042016 C.3        1 UNL1     -0.0615
     26 C         5.302167   -1.379519   -8.26083 C.3        1 UNL1     -0.0615
     27 C         6.35403   8.926418   -2.236737 C.ar        1 UNL1     0.1347
     28 C         5.394986   9.197844   -1.277251 C.ar        1 UNL1     0.0342
     29 C         4.69191   8.064586   -0.816191 C.ar        1 UNL1     0.1435
     30 C         4.909974   6.781915   -1.320594 C.ar        1 UNL1     0.0774
     31 O         3.650781   8.18005   0.036876 O.3        1 UNL1     -0.4436
     32 C         2.927666   6.947992   -0.104586 C.3        1 UNL1     0.3143
     33 C         3.939938   5.953266   -0.635658 C.2        1 UNL1     0.2504
     34 C         4.94965   10.564817   -0.837753 C.3        1 UNL1     -0.0327
     35 O         2.566082   6.512723   1.211868 O.2        1 UNL1     -0.4528
     36 C         -0.67916   4.584141   0.81556 C.3        1 UNL1     0.0854
     37 C         -0.985697   3.323244   -0.080932 C.3        1 UNL1     0.0236
     38 C         -1.58802   2.063523   0.707771 C.3        1 UNL1     0.1131
     39 C         -0.863315   1.532705   2.009809 C.3        1 UNL1     0.0200
     40 C         0.797687   1.385192   2.051617 C.3        1 UNL1     0.0661
     41 C         1.756501   0.614318   0.883695 C.3        1 UNL1     0.0091
     42 C         3.464702   0.97439   0.319957 C.3        1 UNL1     0.0661
     43 C         7.507486   7.448373   -3.895825 C.2        1 UNL1     0.2131
     44 O         7.908677   8.345421   -4.614913 O.2        1 UNL1     -0.2851
     45 O         7.167687   9.960197   -2.695758 O.3        1 UNL1     -0.5056
     46 O         3.954437   4.749814   -0.503957 O.2        1 UNL1     -0.2836
     47 C         5.5645   1.31409   1.93032 C.3        1 UNL1     -0.0566
     48 O         3.91154   -0.437191   0.402963 O.3        1 UNL1     -0.3909
     49 C         0.922425   0.381784   -0.356361 C.3        1 UNL1     -0.0577
     50 O         1.399229   2.602631   2.443679 O.3        1 UNL1     -0.3910
     51 O         -0.803914   4.395682   2.207088 O.3        1 UNL1     -0.3753
     52 C         0.058926   3.160632   -1.233004 C.3        1 UNL1     -0.0564
     53 O         -2.191592   1.024576   -0.191461 O.3        1 UNL1     -0.4608
     54 C         -2.415193   -0.284991   0.144644 C.2        1 UNL1     0.3042
     55 O         -1.843585   -1.278772   -0.302013 O.2        1 UNL1     -0.2512
     56 C         -3.445363   -0.461478   1.223678 C.3        1 UNL1     0.0332
     57 C         -1.583931   2.203535   3.270315 C.3        1 UNL1     -0.0567
     58 C         1.853106   7.193546   -1.189277 C.3        1 UNL1     0.0210
     59 C         -1.115921   5.575632   2.946165 C.3        1 UNL1     0.0372
     60 C         0.650666   5.211444   0.584877 C.2        1 UNL1     -0.0208
     61 C         1.563854   5.646245   1.454233 C.2        1 UNL1     0.0882
     62 H         4.694349   2.727757   0.578025 H        1 UNL1     0.0365
     63 H         6.342033   3.600885   -0.254448 H        1 UNL1     0.0576
     64 H         8.345573   1.478885   -1.244254 H        1 UNL1     0.0615
     65 H         8.282111   4.596206   -1.434362 H        1 UNL1     0.0622
     66 H         -1.422813   5.331327   0.50453 H        1 UNL1     0.0645
     67 H         -1.850681   3.633182   -0.692732 H        1 UNL1     0.0362
     68 H         -2.534671   2.501813   1.058877 H        1 UNL1     0.0741
     69 H         -1.196119   0.522159   2.205889 H        1 UNL1     0.0359
     70 H         0.908393   0.725408   2.93337 H        1 UNL1     0.0600
     71 H         1.798719   -0.406568   1.311439 H        1 UNL1     0.0348
     72 H         3.359108   1.46348   1.29922 H        1 UNL1     0.0602
     73 H         0.769118   5.407749   -0.451792 H        1 UNL1     0.0628
     74 H         1.545724   5.43643   2.524226 H        1 UNL1     0.1022
     75 H         10.941094   2.234617   -3.451531 H        1 UNL1     0.0279
     76 H         10.81687   3.448558   -4.661579 H        1 UNL1     0.0279
     77 H         11.922706   3.62478   -3.23983 H        1 UNL1     0.0279
     78 H         9.073716   4.79006   -5.021635 H        1 UNL1     0.1553
     79 H         7.793222   3.320108   -4.666952 H        1 UNL1     0.1484
     80 H         4.043299   2.721498   -4.805656 H        1 UNL1     0.0317
     81 H         4.77996   4.247936   -5.271753 H        1 UNL1     0.0317
     82 H         6.691036   3.055256   -6.375838 H        1 UNL1     0.0428
     83 H         5.134844   2.580477   -7.019697 H        1 UNL1     0.0428
     84 H         6.909741   -0.056099   -4.191032 H        1 UNL1     0.0428
     85 H         7.821344   1.353464   -4.604835 H        1 UNL1     0.0428
     86 H         6.52834   1.428776   -2.47239 H        1 UNL1     0.0317
     87 H         5.032438   1.202702   -3.255665 H        1 UNL1     0.0317
     88 H         7.268774   0.866653   -7.377138 H        1 UNL1     0.0429
     89 H         6.90324   -0.619793   -6.497877 H        1 UNL1     0.0429
     90 H         4.363827   0.247211   -7.316324 H        1 UNL1     0.0308
     91 H         6.348675   0.920992   -9.566036 H        1 UNL1     0.0233
     92 H         4.577992   0.823047   -9.740916 H        1 UNL1     0.0233
     93 H         5.299054   2.077096   -8.754998 H        1 UNL1     0.0233
     94 H         4.610168   -1.519947   -9.098238 H        1 UNL1     0.0233
     95 H         6.299421   -1.680906   -8.593415 H        1 UNL1     0.0233
     96 H         4.990593   -2.033611   -7.441651 H        1 UNL1     0.0233
     97 H         4.149734   10.51671   -0.104915 H        1 UNL1     0.0280
     98 H         5.760517   11.130771   -0.360838 H        1 UNL1     0.0280
     99 H         4.585732   11.132489   -1.709767 H        1 UNL1     0.0280
     100 H         6.701676   10.711709   -3.017761 H        1 UNL1     0.2922
     101 H         4.69788   0.893309   2.4398 H        1 UNL1     0.0236
     102 H         6.027168   2.115946   2.504731 H        1 UNL1     0.0236
     103 H         6.310593   0.50197   1.930058 H        1 UNL1     0.0236
     104 H         4.325272   -0.564569   1.279075 H        1 UNL1     0.2098
     105 H         0.711036   1.280423   -0.930448 H        1 UNL1     0.0234
     106 H         1.291062   -0.407196   -1.011757 H        1 UNL1     0.0234
     107 H         0.0   -0.0   0.0 H        1 UNL1     0.0234
     108 H         1.216706   3.255889   1.741037 H        1 UNL1     0.2098
     109 H         1.084972   3.058608   -0.852829 H        1 UNL1     0.0234
     110 H         -0.167653   2.325665   -1.904745 H        1 UNL1     0.0234
     111 H         0.072588   4.037683   -1.893715 H        1 UNL1     0.0234
     112 H         -3.56029   -1.52407   1.458277 H        1 UNL1     0.0342
     113 H         -3.204667   0.112159   2.117462 H        1 UNL1     0.0342
     114 H         -4.408211   -0.094785   0.84207 H        1 UNL1     0.0342
     115 H         -2.653865   1.956578   3.308288 H        1 UNL1     0.0234
     116 H         -1.148103   1.924003   4.231546 H        1 UNL1     0.0234
     117 H         -1.621188   3.305398   3.220811 H        1 UNL1     0.0234
     118 H         0.95187   7.680451   -0.777328 H        1 UNL1     0.0309
     119 H         2.223014   7.78172   -2.035103 H        1 UNL1     0.0309
     120 H         1.464648   6.261756   -1.614688 H        1 UNL1     0.0309
     121 H         -0.277024   6.262846   2.839653 H        1 UNL1     0.0524
     122 H         -2.014088   6.085839   2.560129 H        1 UNL1     0.0524
     123 H         -1.271054   5.333013   3.993621 H        1 UNL1     0.0524
@<TRIPOS>BOND
     1     1     2    1
     2     1    42    1
     3     2     3    2
     4     3     4    1
     5     4     5    2
     6     5     7    1
     7     6    75    1
     8     6    76    1
     9     6    77    1
    10     7     9   am
    11     9    10    1
    12    10    11    2
    13    10    43    1
    14    11    14    1
    15    11    15    1
    16    12    13   ar
    17    12    27   ar
    18    12    43    1
    19    13    14    1
    20    13    30   ar
    21    14    17    2
    22    15    16    1
    23    16    17    1
    24    16    18    1
    25    16    22    1
    26    18    19    1
    27    19    20    1
    28    20    21    1
    29    21    22    1
    30    23    24    1
    31    23    88    1
    32    23    89    1
    33    24    25    1
    34    24    26    1
    35    24    90    1
    36    25    91    1
    37    25    92    1
    38    25    93    1
    39    26    94    1
    40    26    95    1
    41    26    96    1
    42    27    28   ar
    43    28    29   ar
    44    29    30   ar
    45    29    31    1
    46    30    33    1
    47    31    32    1
    48    32    33    1
    49    32    35    1
    50    34    97    1
    51    34    98    1
    52    34    99    1
    53    35    61    1
    54    36    37    1
    55    36    60    1
    56    37    38    1
    57    38    39    1
    58    39    40    1
    59    40    41    1
    60    41    42    1
    61    45   100    1
    62    47   101    1
    63    47   102    1
    64    47   103    1
    65    48   104    1
    66    49   105    1
    67    49   106    1
    68    49   107    1
    69    50   108    1
    70    51    59    1
    71    52   109    1
    72    52   110    1
    73    52   111    1
    74    53    54    1
    75    54    55    2
    76    54    56    1
    77    56   112    1
    78    56   113    1
    79    56   114    1
    80    57   115    1
    81    57   116    1
    82    57   117    1
    83    58   118    1
    84    58   119    1
    85    58   120    1
    86    59   121    1
    87    59   122    1
    88    59   123    1
    89    60    61    2
    90     1    47    1
    91     1    62    1
    92     2    63    1
    93     3    64    1
    94     4    65    1
    95     5     6    1
    96     7     8    2
    97     9    78    1
    98    15    79    1
    99    18    80    1
   100    18    81    1
   101    19    82    1
   102    19    83    1
   103    20    23    1
   104    21    84    1
   105    21    85    1
   106    22    86    1
   107    22    87    1
   108    27    45    1
   109    28    34    1
   110    32    58    1
   111    33    46    2
   112    36    51    1
   113    36    66    1
   114    37    52    1
   115    37    67    1
   116    38    53    1
   117    38    68    1
   118    42    48    1
   119    42    72    1
   120    43    44    2
   121    60    73    1
   122    61    74    1
   123    39    69    1
   124    39    57    1
   125    40    70    1
   126    40    50    1
   127    41    71    1
   128    41    49    1
