@<TRIPOS>MOLECULE
*****
 123 128 0 0 0
SMALL
GASTEIGER

@<TRIPOS>ATOM
     1 C         1.86418   4.137896   -1.982865 C.3        1 UNL1     0.0009
     2 C         3.487817   4.916759   -2.423562 C.2        1 UNL1     -0.0787
     3 C         4.675531   5.649079   -2.037446 C.2        1 UNL1     -0.0649
     4 C         6.029871   6.01037   -2.986967 C.2        1 UNL1     -0.0542
     5 C         7.396885   6.381733   -2.96601 C.2        1 UNL1     0.0115
     6 C         8.552458   6.870087   -2.049775 C.3        1 UNL1     -0.0348
     7 C         8.281761   6.162652   -4.287368 C.2        1 UNL1     0.2441
     8 O         8.577375   7.073339   -5.048806 O.2        1 UNL1     -0.2702
     9 N         8.911957   4.908991   -4.373025 N.am        1 UNL1     -0.2772
     10 C         8.080111   3.993561   -4.975804 C.2        1 UNL1     0.1049
     11 C         7.185215   3.41714   -4.194062 C.2        1 UNL1     0.0801
     12 C         6.60664   3.664265   -6.970242 C.ar        1 UNL1     0.0753
     13 C         5.592315   3.241556   -6.053143 C.ar        1 UNL1     0.0305
     14 C         5.89283   2.979442   -4.647427 C.2        1 UNL1     0.0924
     15 N         7.080842   3.417338   -2.85405 N.pl3        1 UNL1     -0.3170
     16 C         6.033392   2.498635   -2.494764 C.3        1 UNL1     0.1275
     17 N         5.110135   2.492618   -3.688616 N.2        1 UNL1     -0.2557
     18 C         6.654552   1.106507   -2.432775 C.3        1 UNL1     0.0016
     19 C         7.8228   1.138092   -1.460259 C.3        1 UNL1     0.0026
     20 N         7.332051   1.551562   -0.152881 N.3        1 UNL1     -0.3018
     21 C         6.662256   2.853436   -0.123454 C.3        1 UNL1     0.0026
     22 C         5.489495   2.797676   -1.103973 C.3        1 UNL1     0.0016
     23 C         8.294668   1.328079   0.907339 C.3        1 UNL1     0.0012
     24 C         7.608811   1.396943   2.28088 C.3        1 UNL1     -0.0339
     25 C         8.482859   0.767472   3.378087 C.3        1 UNL1     -0.0615
     26 C         7.246808   2.834629   2.610719 C.3        1 UNL1     -0.0615
     27 C         6.340054   3.795373   -8.331073 C.ar        1 UNL1     0.1347
     28 C         5.113177   3.495249   -8.895653 C.ar        1 UNL1     0.0342
     29 C         4.11621   3.128051   -7.967006 C.ar        1 UNL1     0.1435
     30 C         4.358875   3.027384   -6.596531 C.ar        1 UNL1     0.0774
     31 O         2.900301   2.69972   -8.370868 O.3        1 UNL1     -0.4436
     32 C         2.369701   1.994545   -7.238586 C.3        1 UNL1     0.3143
     33 C         3.107425   2.556927   -6.040377 C.2        1 UNL1     0.2504
     34 C         4.826202   3.370029   -10.366049 C.3        1 UNL1     -0.0327
     35 O         0.996484   2.380301   -7.101771 O.2        1 UNL1     -0.4528
     36 C         -0.776399   -0.607547   -5.572805 C.3        1 UNL1     0.0854
     37 C         -0.474128   -1.360544   -4.220344 C.3        1 UNL1     0.0236
     38 C         -1.718806   -1.470314   -3.215123 C.3        1 UNL1     0.1131
     39 C         -2.542693   -0.172804   -2.841027 C.3        1 UNL1     0.0200
     40 C         -1.755906   1.255173   -2.488484 C.3        1 UNL1     0.0661
     41 C         -0.468376   1.437553   -1.399166 C.3        1 UNL1     0.0091
     42 C         0.957581   2.591417   -1.424618 C.3        1 UNL1     0.0661
     43 C         7.976042   3.872303   -6.437591 C.2        1 UNL1     0.2131
     44 O         8.978462   3.84345   -7.128286 O.2        1 UNL1     -0.2851
     45 O         7.369952   4.255991   -9.148739 O.3        1 UNL1     -0.5056
     46 O         2.736518   2.622251   -4.889719 O.2        1 UNL1     -0.2836
     47 C         0.780619   5.230175   -1.775976 C.3        1 UNL1     -0.0566
     48 O         0.802798   2.994451   -0.005913 O.3        1 UNL1     -0.3909
     49 C         0.077098   0.069547   -1.054912 C.3        1 UNL1     -0.0577
     50 O         -1.498571   1.990031   -3.668097 O.3        1 UNL1     -0.3910
     51 O         -2.034705   0.02222   -5.659359 O.3        1 UNL1     -0.3753
     52 C         0.980552   -1.08852   -3.715509 C.3        1 UNL1     -0.0564
     53 O         -1.517387   -2.473428   -2.117162 O.3        1 UNL1     -0.4608
     54 C         -0.502701   -3.392458   -2.056118 C.2        1 UNL1     0.3042
     55 O         -0.199848   -4.108398   -1.102415 O.2        1 UNL1     -0.2512
     56 C         0.255212   -3.538011   -3.344953 C.3        1 UNL1     0.0332
     57 C         -3.806729   -0.105576   -3.818712 C.3        1 UNL1     -0.0567
     58 C         2.769854   0.511804   -7.419932 C.3        1 UNL1     0.0210
     59 C         -2.0146   1.323879   -6.243436 C.3        1 UNL1     0.0372
     60 C         0.239017   0.406014   -5.968766 C.2        1 UNL1     -0.0208
     61 C         0.086384   1.647264   -6.432174 C.2        1 UNL1     0.0882
     62 H         1.768878   3.795071   -3.020218 H        1 UNL1     0.0365
     63 H         3.500998   4.762262   -3.5045 H        1 UNL1     0.0576
     64 H         4.876091   5.905742   -0.994849 H        1 UNL1     0.0615
     65 H         5.698494   5.794692   -4.006357 H        1 UNL1     0.0622
     66 H         -0.734225   -1.392406   -6.341091 H        1 UNL1     0.0645
     67 H         -0.343236   -2.413903   -4.523434 H        1 UNL1     0.0362
     68 H         -2.398325   -2.080319   -3.829671 H        1 UNL1     0.0741
     69 H         -3.102371   -0.365005   -1.935363 H        1 UNL1     0.0359
     70 H         -2.576568   1.807513   -1.992002 H        1 UNL1     0.0600
     71 H         -1.02924   1.685962   -0.476841 H        1 UNL1     0.0348
     72 H         0.202056   3.028209   -2.09373 H        1 UNL1     0.0602
     73 H         1.202072   -0.040747   -5.955442 H        1 UNL1     0.0628
     74 H         -0.855677   2.196547   -6.425343 H        1 UNL1     0.1022
     75 H         9.205807   6.01444   -1.753063 H        1 UNL1     0.0279
     76 H         9.262705   7.564419   -2.493081 H        1 UNL1     0.0279
     77 H         8.198334   7.22242   -1.069898 H        1 UNL1     0.0279
     78 H         9.118745   4.565478   -3.437442 H        1 UNL1     0.1553
     79 H         7.837465   3.647726   -2.236494 H        1 UNL1     0.1484
     80 H         5.889377   0.387354   -2.116401 H        1 UNL1     0.0317
     81 H         6.995785   0.785844   -3.42292 H        1 UNL1     0.0317
     82 H         8.625906   1.803325   -1.810114 H        1 UNL1     0.0428
     83 H         8.25216   0.136124   -1.432679 H        1 UNL1     0.0428
     84 H         6.233414   3.104139   0.851766 H        1 UNL1     0.0428
     85 H         7.360364   3.677016   -0.327606 H        1 UNL1     0.0428
     86 H         4.946794   3.713288   -0.958648 H        1 UNL1     0.0317
     87 H         4.775135   2.026712   -0.790285 H        1 UNL1     0.0317
     88 H         8.718021   0.323411   0.778074 H        1 UNL1     0.0429
     89 H         9.12866   2.038964   0.84509 H        1 UNL1     0.0429
     90 H         6.65864   0.851652   2.235643 H        1 UNL1     0.0308
     91 H         9.466914   0.487058   2.990652 H        1 UNL1     0.0233
     92 H         8.610376   1.458765   4.214426 H        1 UNL1     0.0233
     93 H         8.035528   -0.141513   3.798178 H        1 UNL1     0.0233
     94 H         7.484188   3.48768   1.763953 H        1 UNL1     0.0233
     95 H         6.173968   2.914101   2.807342 H        1 UNL1     0.0233
     96 H         7.793822   3.192811   3.487331 H        1 UNL1     0.0233
     97 H         5.726716   3.460729   -10.966114 H        1 UNL1     0.0280
     98 H         4.391932   2.394583   -10.621333 H        1 UNL1     0.0280
     99 H         4.124533   4.162481   -10.673909 H        1 UNL1     0.0280
     100 H         7.940684   3.583138   -9.476088 H        1 UNL1     0.2922
     101 H         1.175541   6.201036   -2.074508 H        1 UNL1     0.0236
     102 H         0.376212   5.246623   -0.764458 H        1 UNL1     0.0236
     103 H         -0.095833   5.072523   -2.426493 H        1 UNL1     0.0236
     104 H         1.592168   2.681151   0.47752 H        1 UNL1     0.2098
     105 H         -0.481799   -0.75797   -1.484634 H        1 UNL1     0.0234
     106 H         1.143182   -0.056271   -1.243491 H        1 UNL1     0.0234
     107 H         0.0   0.0   0.0 H        1 UNL1     0.0234
     108 H         -1.241561   1.349236   -4.358818 H        1 UNL1     0.2098
     109 H         1.032064   -0.220818   -3.043086 H        1 UNL1     0.0234
     110 H         1.436567   -1.957148   -3.228395 H        1 UNL1     0.0234
     111 H         1.661522   -0.861384   -4.546553 H        1 UNL1     0.0234
     112 H         0.643476   -4.557045   -3.435324 H        1 UNL1     0.0342
     113 H         -0.351959   -3.273161   -4.209268 H        1 UNL1     0.0342
     114 H         1.112982   -2.851961   -3.317916 H        1 UNL1     0.0342
     115 H         -3.721507   0.718542   -4.540346 H        1 UNL1     0.0234
     116 H         -3.978361   -1.022442   -4.386117 H        1 UNL1     0.0234
     117 H         -4.747052   0.157794   -3.304542 H        1 UNL1     0.0234
     118 H         2.082794   -0.170855   -6.889901 H        1 UNL1     0.0309
     119 H         2.835336   0.209819   -8.470037 H        1 UNL1     0.0309
     120 H         3.745239   0.282454   -6.977068 H        1 UNL1     0.0309
     121 H         -3.04687   1.614632   -6.436405 H        1 UNL1     0.0524
     122 H         -1.577776   2.07861   -5.568452 H        1 UNL1     0.0524
     123 H         -1.449187   1.310959   -7.170925 H        1 UNL1     0.0524
@<TRIPOS>BOND
     1     1     2    1
     2     1    42    1
     3     2     3    2
     4     3     4    1
     5     4     5    2
     6     5     7    1
     7     6    75    1
     8     6    76    1
     9     6    77    1
    10     7     9   am
    11     9    10    1
    12    10    11    2
    13    10    43    1
    14    11    14    1
    15    11    15    1
    16    12    13   ar
    17    12    27   ar
    18    12    43    1
    19    13    14    1
    20    13    30   ar
    21    14    17    2
    22    15    16    1
    23    16    17    1
    24    16    18    1
    25    16    22    1
    26    18    19    1
    27    19    20    1
    28    20    21    1
    29    21    22    1
    30    23    24    1
    31    23    88    1
    32    23    89    1
    33    24    25    1
    34    24    26    1
    35    24    90    1
    36    25    91    1
    37    25    92    1
    38    25    93    1
    39    26    94    1
    40    26    95    1
    41    26    96    1
    42    27    28   ar
    43    28    29   ar
    44    29    30   ar
    45    29    31    1
    46    30    33    1
    47    31    32    1
    48    32    33    1
    49    32    35    1
    50    34    97    1
    51    34    98    1
    52    34    99    1
    53    35    61    1
    54    36    37    1
    55    36    60    1
    56    37    38    1
    57    38    39    1
    58    39    40    1
    59    40    41    1
    60    41    42    1
    61    45   100    1
    62    47   101    1
    63    47   102    1
    64    47   103    1
    65    48   104    1
    66    49   105    1
    67    49   106    1
    68    49   107    1
    69    50   108    1
    70    51    59    1
    71    52   109    1
    72    52   110    1
    73    52   111    1
    74    53    54    1
    75    54    55    2
    76    54    56    1
    77    56   112    1
    78    56   113    1
    79    56   114    1
    80    57   115    1
    81    57   116    1
    82    57   117    1
    83    58   118    1
    84    58   119    1
    85    58   120    1
    86    59   121    1
    87    59   122    1
    88    59   123    1
    89    60    61    2
    90     1    47    1
    91     1    62    1
    92     2    63    1
    93     3    64    1
    94     4    65    1
    95     5     6    1
    96     7     8    2
    97     9    78    1
    98    15    79    1
    99    18    80    1
   100    18    81    1
   101    19    82    1
   102    19    83    1
   103    20    23    1
   104    21    84    1
   105    21    85    1
   106    22    86    1
   107    22    87    1
   108    27    45    1
   109    28    34    1
   110    32    58    1
   111    33    46    2
   112    36    51    1
   113    36    66    1
   114    37    52    1
   115    37    67    1
   116    38    53    1
   117    38    68    1
   118    42    48    1
   119    42    72    1
   120    43    44    2
   121    60    73    1
   122    61    74    1
   123    39    69    1
   124    39    57    1
   125    40    70    1
   126    40    50    1
   127    41    71    1
   128    41    49    1
