@<TRIPOS>MOLECULE
*****
 123 128 0 0 0
SMALL
GASTEIGER

@<TRIPOS>ATOM
     1 C         -1.906985   2.573234   -2.605223 C.3        1 UNL1     0.0009
     2 C         -3.493585   3.495293   -2.341507 C.2        1 UNL1     -0.0787
     3 C         -4.930796   3.589724   -2.488313 C.2        1 UNL1     -0.0649
     4 C         -5.965264   4.774162   -1.861146 C.2        1 UNL1     -0.0542
     5 C         -7.304738   5.081781   -1.517261 C.2        1 UNL1     0.0115
     6 C         -8.775137   4.593637   -1.631128 C.3        1 UNL1     -0.0348
     7 C         -7.589524   6.313405   -0.527823 C.2        1 UNL1     0.2441
     8 O         -7.981675   7.404195   -0.918874 O.2        1 UNL1     -0.2702
     9 N         -7.60992   5.979478   0.837544 N.am        1 UNL1     -0.2772
     10 C         -6.343381   6.056668   1.369749 C.2        1 UNL1     0.1049
     11 C         -5.571198   5.000405   1.190127 C.2        1 UNL1     0.0801
     12 C         -4.338693   7.546134   1.511358 C.ar        1 UNL1     0.0753
     13 C         -3.564772   6.411729   1.1079 C.ar        1 UNL1     0.0305
     14 C         -4.140733   5.069627   1.062245 C.2        1 UNL1     0.0924
     15 N         -5.881225   3.768247   0.751724 N.pl3        1 UNL1     -0.3170
     16 C         -4.713965   2.940926   0.904366 C.3        1 UNL1     0.1275
     17 N         -3.55448   3.902501   0.811144 N.2        1 UNL1     -0.2557
     18 C         -4.715391   2.416898   2.337228 C.3        1 UNL1     0.0016
     19 C         -6.031313   1.698953   2.591185 C.3        1 UNL1     0.0026
     20 N         -6.161578   0.608693   1.634424 N.3        1 UNL1     -0.3018
     21 C         -6.109292   1.007564   0.226398 C.3        1 UNL1     0.0026
     22 C         -4.777419   1.722649   -0.007404 C.3        1 UNL1     0.0016
     23 C         -7.223664   -0.316771   1.975206 C.3        1 UNL1     0.0012
     24 C         -6.838742   -1.147548   3.209468 C.3        1 UNL1     -0.0339
     25 C         -5.986487   -0.330107   4.194104 C.3        1 UNL1     -0.0615
     26 C         -8.087034   -1.699778   3.875493 C.3        1 UNL1     -0.0615
     27 C         -3.753276   8.800181   1.668751 C.ar        1 UNL1     0.1347
     28 C         -2.401265   9.033464   1.490717 C.ar        1 UNL1     0.0342
     29 C         -1.667994   7.912756   1.046319 C.ar        1 UNL1     0.1435
     30 C         -2.247705   6.658805   0.849438 C.ar        1 UNL1     0.0774
     31 O         -0.322353   7.950738   0.933121 O.3        1 UNL1     -0.4436
     32 C         0.080668   6.572896   0.93371 C.3        1 UNL1     0.3143
     33 C         -1.141316   5.802523   0.476005 C.2        1 UNL1     0.2504
     34 C         -1.66314   10.283277   1.882175 C.3        1 UNL1     -0.0327
     35 O         1.076229   6.419844   -0.085449 O.2        1 UNL1     -0.4528
     36 C         3.348549   3.616628   1.092107 C.3        1 UNL1     0.0854
     37 C         2.982877   2.129425   1.46898 C.3        1 UNL1     0.0236
     38 C         3.805264   1.008064   0.670248 C.3        1 UNL1     0.1131
     39 C         3.889874   1.071501   -0.908069 C.3        1 UNL1     0.0200
     40 C         2.532627   1.418228   -1.813663 C.3        1 UNL1     0.0661
     41 C         1.018224   0.669309   -1.660977 C.3        1 UNL1     0.0091
     42 C         -0.670751   1.335759   -1.922918 C.3        1 UNL1     0.0661
     43 C         -5.767964   7.324313   1.843381 C.2        1 UNL1     0.2131
     44 O         -6.419015   8.07304   2.54927 O.2        1 UNL1     -0.2851
     45 O         -4.585539   9.861185   2.01953 O.3        1 UNL1     -0.5056
     46 O         -1.189702   4.733139   -0.089618 O.2        1 UNL1     -0.2836
     47 C         -1.465408   2.673497   -4.090126 C.3        1 UNL1     -0.0566
     48 O         -1.121354   0.184409   -2.741739 O.3        1 UNL1     -0.3909
     49 C         0.988434   -0.111835   -0.366211 C.3        1 UNL1     -0.0577
     50 O         2.368786   2.814822   -1.956504 O.3        1 UNL1     -0.3910
     51 O         4.213868   3.778141   -0.00906 O.3        1 UNL1     -0.3753
     52 C         1.462459   1.969387   1.797106 C.3        1 UNL1     -0.0564
     53 O         3.702881   -0.359732   1.279329 O.3        1 UNL1     -0.4608
     54 C         3.965457   -1.539449   0.63338 C.2        1 UNL1     0.3042
     55 O         4.816274   -2.378371   0.926911 O.2        1 UNL1     -0.2512
     56 C         3.043521   -1.811072   -0.521163 C.3        1 UNL1     0.0332
     57 C         5.250942   1.82053   -1.288365 C.3        1 UNL1     -0.0567
     58 C         0.3797   6.205253   2.405765 C.3        1 UNL1     0.0210
     59 C         5.537428   4.193732   0.324611 C.3        1 UNL1     0.0372
     60 C         2.182163   4.51052   0.856178 C.2        1 UNL1     -0.0208
     61 C         1.957604   5.401733   -0.110288 C.2        1 UNL1     0.0882
     62 H         -1.377578   3.368635   -2.066914 H        1 UNL1     0.0365
     63 H         -3.120349   4.418955   -1.894278 H        1 UNL1     0.0576
     64 H         -5.51863   2.769411   -2.906221 H        1 UNL1     0.0615
     65 H         -5.28732   5.572316   -1.54678 H        1 UNL1     0.0622
     66 H         3.854784   4.010999   1.984431 H        1 UNL1     0.0645
     67 H         3.380346   2.006495   2.49146 H        1 UNL1     0.0362
     68 H         4.821388   1.236579   1.026331 H        1 UNL1     0.0741
     69 H         4.181107   0.098375   -1.280381 H        1 UNL1     0.0359
     70 H         2.875245   1.076673   -2.80916 H        1 UNL1     0.0600
     71 H         1.129671   -0.145208   -2.403338 H        1 UNL1     0.0348
     72 H         0.009818   2.017063   -2.453923 H        1 UNL1     0.0602
     73 H         1.521636   4.448936   1.685129 H        1 UNL1     0.0628
     74 H         2.552996   5.488224   -1.01983 H        1 UNL1     0.1022
     75 H         -9.00792   4.29213   -2.680861 H        1 UNL1     0.0279
     76 H         -9.034699   3.700167   -1.067739 H        1 UNL1     0.0279
     77 H         -9.504823   5.40077   -1.470515 H        1 UNL1     0.0279
     78 H         -7.931663   5.020396   0.950335 H        1 UNL1     0.1553
     79 H         -6.813592   3.397314   0.746021 H        1 UNL1     0.1484
     80 H         -3.859637   1.74455   2.472872 H        1 UNL1     0.0317
     81 H         -4.58735   3.23563   3.053422 H        1 UNL1     0.0317
     82 H         -6.888425   2.38546   2.528099 H        1 UNL1     0.0428
     83 H         -6.011893   1.334947   3.618887 H        1 UNL1     0.0428
     84 H         -6.12901   0.163247   -0.469699 H        1 UNL1     0.0428
     85 H         -6.982117   1.61025   -0.060416 H        1 UNL1     0.0428
     86 H         -4.715793   1.880413   -1.068205 H        1 UNL1     0.0317
     87 H         -3.944236   1.038987   0.196331 H        1 UNL1     0.0317
     88 H         -8.122231   0.267292   2.213412 H        1 UNL1     0.0429
     89 H         -7.476601   -0.963883   1.125475 H        1 UNL1     0.0429
     90 H         -6.259365   -2.021153   2.887988 H        1 UNL1     0.0308
     91 H         -5.020405   -0.061747   3.756185 H        1 UNL1     0.0233
     92 H         -6.509776   0.580857   4.493972 H        1 UNL1     0.0233
     93 H         -5.774729   -0.879736   5.119253 H        1 UNL1     0.0233
     94 H         -7.839591   -2.591968   4.460817 H        1 UNL1     0.0233
     95 H         -8.50728   -0.955139   4.557305 H        1 UNL1     0.0233
     96 H         -8.846732   -1.970722   3.136969 H        1 UNL1     0.0233
     97 H         -0.860832   10.07942   2.585008 H        1 UNL1     0.0280
     98 H         -1.190573   10.771972   1.020134 H        1 UNL1     0.0280
     99 H         -2.362935   10.993023   2.352964 H        1 UNL1     0.0280
     100 H         -4.705634   9.974857   2.945963 H        1 UNL1     0.2922
     101 H         -0.400845   2.455432   -4.172652 H        1 UNL1     0.0236
     102 H         -1.724705   3.626016   -4.551054 H        1 UNL1     0.0236
     103 H         -1.956463   1.913388   -4.720439 H        1 UNL1     0.0236
     104 H         -0.376946   -0.446104   -2.799005 H        1 UNL1     0.2098
     105 H         1.183193   -1.175418   -0.478787 H        1 UNL1     0.0234
     106 H         1.606029   0.303082   0.430248 H        1 UNL1     0.0234
     107 H         0.0   0.0   0.0 H        1 UNL1     0.0234
     108 H         3.173709   3.158527   -2.389787 H        1 UNL1     0.2098
     109 H         1.154306   2.586619   2.652546 H        1 UNL1     0.0234
     110 H         0.812858   2.17969   0.940639 H        1 UNL1     0.0234
     111 H         1.214353   0.935512   2.071862 H        1 UNL1     0.0234
     112 H         3.617591   -2.177607   -1.377575 H        1 UNL1     0.0342
     113 H         2.249491   -2.507571   -0.256119 H        1 UNL1     0.0342
     114 H         2.571023   -0.863143   -0.813294 H        1 UNL1     0.0342
     115 H         5.677945   1.440328   -2.22661 H        1 UNL1     0.0234
     116 H         5.148885   2.902901   -1.388897 H        1 UNL1     0.0234
     117 H         6.075319   1.62029   -0.582499 H        1 UNL1     0.0234
     118 H         1.457281   6.041   2.581396 H        1 UNL1     0.0309
     119 H         0.010113   6.949685   3.118105 H        1 UNL1     0.0309
     120 H         -0.072498   5.252181   2.701194 H        1 UNL1     0.0309
     121 H         5.946414   4.71681   -0.539378 H        1 UNL1     0.0524
     122 H         5.553745   4.894942   1.175538 H        1 UNL1     0.0524
     123 H         6.15238   3.331495   0.566429 H        1 UNL1     0.0524
@<TRIPOS>BOND
     1     1     2    1
     2     1    42    1
     3     2     3    2
     4     3     4    1
     5     4     5    2
     6     5     7    1
     7     6    75    1
     8     6    76    1
     9     6    77    1
    10     7     9   am
    11     9    10    1
    12    10    11    2
    13    10    43    1
    14    11    14    1
    15    11    15    1
    16    12    13   ar
    17    12    27   ar
    18    12    43    1
    19    13    14    1
    20    13    30   ar
    21    14    17    2
    22    15    16    1
    23    16    17    1
    24    16    18    1
    25    16    22    1
    26    18    19    1
    27    19    20    1
    28    20    21    1
    29    21    22    1
    30    23    24    1
    31    23    88    1
    32    23    89    1
    33    24    25    1
    34    24    26    1
    35    24    90    1
    36    25    91    1
    37    25    92    1
    38    25    93    1
    39    26    94    1
    40    26    95    1
    41    26    96    1
    42    27    28   ar
    43    28    29   ar
    44    29    30   ar
    45    29    31    1
    46    30    33    1
    47    31    32    1
    48    32    33    1
    49    32    35    1
    50    34    97    1
    51    34    98    1
    52    34    99    1
    53    35    61    1
    54    36    37    1
    55    36    60    1
    56    37    38    1
    57    38    39    1
    58    39    40    1
    59    40    41    1
    60    41    42    1
    61    45   100    1
    62    47   101    1
    63    47   102    1
    64    47   103    1
    65    48   104    1
    66    49   105    1
    67    49   106    1
    68    49   107    1
    69    50   108    1
    70    51    59    1
    71    52   109    1
    72    52   110    1
    73    52   111    1
    74    53    54    1
    75    54    55    2
    76    54    56    1
    77    56   112    1
    78    56   113    1
    79    56   114    1
    80    57   115    1
    81    57   116    1
    82    57   117    1
    83    58   118    1
    84    58   119    1
    85    58   120    1
    86    59   121    1
    87    59   122    1
    88    59   123    1
    89    60    61    2
    90     1    47    1
    91     1    62    1
    92     2    63    1
    93     3    64    1
    94     4    65    1
    95     5     6    1
    96     7     8    2
    97     9    78    1
    98    15    79    1
    99    18    80    1
   100    18    81    1
   101    19    82    1
   102    19    83    1
   103    20    23    1
   104    21    84    1
   105    21    85    1
   106    22    86    1
   107    22    87    1
   108    27    45    1
   109    28    34    1
   110    32    58    1
   111    33    46    2
   112    36    51    1
   113    36    66    1
   114    37    52    1
   115    37    67    1
   116    38    53    1
   117    38    68    1
   118    42    48    1
   119    42    72    1
   120    43    44    2
   121    60    73    1
   122    61    74    1
   123    39    69    1
   124    39    57    1
   125    40    70    1
   126    40    50    1
   127    41    71    1
   128    41    49    1
