@<TRIPOS>MOLECULE
*****
 123 128 0 0 0
SMALL
GASTEIGER

@<TRIPOS>ATOM
     1 C         4.350216   2.489514   -1.585431 C.3        1 UNL1     0.0009
     2 C         5.521987   2.535867   -3.021342 C.2        1 UNL1     -0.0787
     3 C         6.841962   2.313791   -3.573061 C.2        1 UNL1     -0.0649
     4 C         7.331534   2.451705   -5.187885 C.2        1 UNL1     -0.0542
     5 C         8.313768   2.080774   -6.139044 C.2        1 UNL1     0.0115
     6 C         9.708931   1.419819   -6.312198 C.3        1 UNL1     -0.0348
     7 C         7.971029   2.213208   -7.701728 C.2        1 UNL1     0.2441
     8 O         8.382967   3.130933   -8.39787 O.2        1 UNL1     -0.2702
     9 N         7.38564   1.071003   -8.275173 N.am        1 UNL1     -0.2772
     10 C         6.017103   1.112757   -8.138472 C.2        1 UNL1     0.1049
     11 C         5.534889   0.698428   -6.980879 C.2        1 UNL1     0.0801
     12 C         4.03443   2.600222   -8.475802 C.ar        1 UNL1     0.0753
     13 C         3.663614   2.279602   -7.131069 C.ar        1 UNL1     0.0305
     14 C         4.332027   1.214983   -6.386178 C.2        1 UNL1     0.0924
     15 N         6.141992   0.041818   -5.977476 N.pl3        1 UNL1     -0.3170
     16 C         5.133522   -0.325864   -5.019325 C.3        1 UNL1     0.1275
     17 N         4.058109   0.720387   -5.182321 N.2        1 UNL1     -0.2557
     18 C         4.519977   -1.64081   -5.490685 C.3        1 UNL1     0.0016
     19 C         5.631804   -2.664567   -5.656067 C.3        1 UNL1     0.0026
     20 N         6.30859   -2.830828   -4.377261 N.3        1 UNL1     -0.3018
     21 C         6.879091   -1.606364   -3.811943 C.3        1 UNL1     0.0026
     22 C         5.744142   -0.59366   -3.650027 C.3        1 UNL1     0.0016
     23 C         7.178944   -3.989348   -4.346262 C.3        1 UNL1     0.0012
     24 C         8.357116   -3.752432   -3.38838 C.3        1 UNL1     -0.0339
     25 C         9.63656   -4.4426   -3.889126 C.3        1 UNL1     -0.0615
     26 C         8.569509   -2.262699   -3.182554 C.3        1 UNL1     -0.0615
     27 C         3.314754   3.531798   -9.220349 C.ar        1 UNL1     0.1347
     28 C         2.186887   4.175435   -8.743175 C.ar        1 UNL1     0.0342
     29 C         1.869445   3.880584   -7.400246 C.ar        1 UNL1     0.1435
     30 C         2.602571   2.976713   -6.630333 C.ar        1 UNL1     0.0774
     31 O         0.737453   4.3428   -6.825828 O.3        1 UNL1     -0.4436
     32 C         0.528865   3.485023   -5.693758 C.3        1 UNL1     0.3143
     33 C         1.896597   2.920252   -5.367329 C.2        1 UNL1     0.2504
     34 C         1.224181   4.990225   -9.561352 C.3        1 UNL1     -0.0327
     35 O         0.147933   4.318535   -4.592214 O.2        1 UNL1     -0.4528
     36 C         -2.101159   2.184973   -2.401874 C.3        1 UNL1     0.0854
     37 C         -1.799581   0.795692   -1.718887 C.3        1 UNL1     0.0236
     38 C         -2.029456   0.758554   -0.132217 C.3        1 UNL1     0.1131
     39 C         -1.372292   1.869243   0.782537 C.3        1 UNL1     0.0200
     40 C         0.205738   2.347084   0.529701 C.3        1 UNL1     0.0661
     41 C         1.542379   1.31537   0.366699 C.3        1 UNL1     0.0091
     42 C         3.076789   1.50273   -0.621169 C.3        1 UNL1     0.0661
     43 C         5.156878   1.842087   -9.082105 C.2        1 UNL1     0.2131
     44 O         5.319123   1.725447   -10.283275 O.2        1 UNL1     -0.2851
     45 O         3.769151   3.820177   -10.505573 O.3        1 UNL1     -0.5056
     46 O         2.316407   2.531957   -4.300164 O.2        1 UNL1     -0.2836
     47 C         4.646536   3.659944   -0.609589 C.3        1 UNL1     -0.0566
     48 O         3.976639   1.11658   0.492507 O.3        1 UNL1     -0.3909
     49 C         1.045435   -0.096032   0.146505 C.3        1 UNL1     -0.0577
     50 O         0.268971   3.376179   -0.437091 O.3        1 UNL1     -0.3910
     51 O         -2.362629   3.258202   -1.52595 O.3        1 UNL1     -0.3753
     52 C         -0.601841   0.058989   -2.402726 C.3        1 UNL1     -0.0564
     53 O         -2.08013   -0.630005   0.434936 O.3        1 UNL1     -0.4608
     54 C         -2.452387   -0.953582   1.713472 C.2        1 UNL1     0.3042
     55 O         -3.594435   -1.005717   2.168276 O.2        1 UNL1     -0.2512
     56 C         -1.298678   -1.331074   2.598441 C.3        1 UNL1     0.0332
     57 C         -2.467935   3.010418   1.018043 C.3        1 UNL1     -0.0567
     58 C         -0.383188   2.33429   -6.179045 C.3        1 UNL1     0.0210
     59 C         -2.576728   4.515496   -2.16567 C.3        1 UNL1     0.0372
     60 C         -1.06153   2.654603   -3.357793 C.2        1 UNL1     -0.0208
     61 C         -0.506517   3.857873   -3.508945 C.2        1 UNL1     0.0882
     62 H         3.549947   2.832852   -2.252065 H        1 UNL1     0.0365
     63 H         4.887835   2.987427   -3.787119 H        1 UNL1     0.0576
     64 H         7.639827   1.857727   -2.982701 H        1 UNL1     0.0615
     65 H         6.505349   2.984861   -5.666055 H        1 UNL1     0.0622
     66 H         -3.004337   2.007033   -3.002418 H        1 UNL1     0.0645
     67 H         -2.613595   0.140069   -2.073991 H        1 UNL1     0.0362
     68 H         -3.111832   0.955653   -0.098502 H        1 UNL1     0.0741
     69 H         -1.351089   1.51163   1.803356 H        1 UNL1     0.0359
     70 H         0.406647   2.85782   1.490869 H        1 UNL1     0.0600
     71 H         1.877682   1.265363   1.421227 H        1 UNL1     0.0348
     72 H         2.655971   2.513659   -0.519925 H        1 UNL1     0.0602
     73 H         -0.863023   1.88628   -4.063146 H        1 UNL1     0.0628
     74 H         -0.6128   4.67947   -2.799777 H        1 UNL1     0.1022
     75 H         9.945243   0.767931   -5.436851 H        1 UNL1     0.0279
     76 H         9.821113   0.736009   -7.150582 H        1 UNL1     0.0279
     77 H         10.532534   2.147507   -6.269191 H        1 UNL1     0.0279
     78 H         7.716443   0.238155   -7.792462 H        1 UNL1     0.1553
     79 H         7.002033   -0.464281   -6.082952 H        1 UNL1     0.1484
     80 H         3.776479   -1.972179   -4.755721 H        1 UNL1     0.0317
     81 H         3.986292   -1.506343   -6.437655 H        1 UNL1     0.0317
     82 H         6.341067   -2.371617   -6.444127 H        1 UNL1     0.0428
     83 H         5.172556   -3.593915   -5.994379 H        1 UNL1     0.0428
     84 H         7.311013   -1.743005   -2.815657 H        1 UNL1     0.0428
     85 H         7.715616   -1.228432   -4.415856 H        1 UNL1     0.0428
     86 H         6.169504   0.234789   -3.114558 H        1 UNL1     0.0317
     87 H         4.989803   -0.984028   -2.955994 H        1 UNL1     0.0317
     88 H         6.596442   -4.844406   -3.979027 H        1 UNL1     0.0429
     89 H         7.532628   -4.249422   -5.352265 H        1 UNL1     0.0429
     90 H         8.104864   -4.158185   -2.401493 H        1 UNL1     0.0308
     91 H         9.797642   -4.256548   -4.955212 H        1 UNL1     0.0233
     92 H         10.507624   -4.094948   -3.328772 H        1 UNL1     0.0233
     93 H         9.602819   -5.530908   -3.757667 H        1 UNL1     0.0233
     94 H         9.48848   -1.939449   -3.683391 H        1 UNL1     0.0233
     95 H         7.735263   -1.703108   -3.614822 H        1 UNL1     0.0233
     96 H         8.648863   -2.013903   -2.120588 H        1 UNL1     0.0233
     97 H         1.121874   6.002437   -9.181628 H        1 UNL1     0.0280
     98 H         1.550774   5.092159   -10.604521 H        1 UNL1     0.0280
     99 H         0.230593   4.513122   -9.545479 H        1 UNL1     0.0280
     100 H         3.758506   3.088951   -11.097872 H        1 UNL1     0.2922
     101 H         4.628312   4.604769   -1.152386 H        1 UNL1     0.0236
     102 H         5.57186   3.527586   -0.049909 H        1 UNL1     0.0236
     103 H         3.864587   3.764747   0.160973 H        1 UNL1     0.0236
     104 H         3.579758   1.449178   1.321262 H        1 UNL1     0.2098
     105 H         1.460585   -0.586676   -0.730268 H        1 UNL1     0.0234
     106 H         1.124179   -0.747494   1.016748 H        1 UNL1     0.0234
     107 H         -0.0   0.0   0.0 H        1 UNL1     0.0234
     108 H         0.161958   4.224499   0.034787 H        1 UNL1     0.2098
     109 H         -0.008336   -0.524854   -1.685376 H        1 UNL1     0.0234
     110 H         -0.910317   -0.585207   -3.233145 H        1 UNL1     0.0234
     111 H         0.10012   0.767635   -2.862093 H        1 UNL1     0.0234
     112 H         -1.665213   -1.597078   3.594553 H        1 UNL1     0.0342
     113 H         -0.702993   -2.137368   2.173126 H        1 UNL1     0.0342
     114 H         -0.645267   -0.454001   2.703139 H        1 UNL1     0.0342
     115 H         -2.381056   3.460129   2.016742 H        1 UNL1     0.0234
     116 H         -2.428188   3.82142   0.288149 H        1 UNL1     0.0234
     117 H         -3.502697   2.627753   1.045935 H        1 UNL1     0.0234
     118 H         -0.279169   1.43072   -5.553148 H        1 UNL1     0.0309
     119 H         -1.439871   2.615561   -6.229154 H        1 UNL1     0.0309
     120 H         -0.115906   1.979908   -7.180584 H        1 UNL1     0.0309
     121 H         -2.275002   5.296093   -1.467826 H        1 UNL1     0.0524
     122 H         -1.966272   4.630652   -3.076779 H        1 UNL1     0.0524
     123 H         -3.624914   4.63074   -2.426664 H        1 UNL1     0.0524
@<TRIPOS>BOND
     1     1     2    1
     2     1    42    1
     3     2     3    2
     4     3     4    1
     5     4     5    2
     6     5     7    1
     7     6    75    1
     8     6    76    1
     9     6    77    1
    10     7     9   am
    11     9    10    1
    12    10    11    2
    13    10    43    1
    14    11    14    1
    15    11    15    1
    16    12    13   ar
    17    12    27   ar
    18    12    43    1
    19    13    14    1
    20    13    30   ar
    21    14    17    2
    22    15    16    1
    23    16    17    1
    24    16    18    1
    25    16    22    1
    26    18    19    1
    27    19    20    1
    28    20    21    1
    29    21    22    1
    30    23    24    1
    31    23    88    1
    32    23    89    1
    33    24    25    1
    34    24    26    1
    35    24    90    1
    36    25    91    1
    37    25    92    1
    38    25    93    1
    39    26    94    1
    40    26    95    1
    41    26    96    1
    42    27    28   ar
    43    28    29   ar
    44    29    30   ar
    45    29    31    1
    46    30    33    1
    47    31    32    1
    48    32    33    1
    49    32    35    1
    50    34    97    1
    51    34    98    1
    52    34    99    1
    53    35    61    1
    54    36    37    1
    55    36    60    1
    56    37    38    1
    57    38    39    1
    58    39    40    1
    59    40    41    1
    60    41    42    1
    61    45   100    1
    62    47   101    1
    63    47   102    1
    64    47   103    1
    65    48   104    1
    66    49   105    1
    67    49   106    1
    68    49   107    1
    69    50   108    1
    70    51    59    1
    71    52   109    1
    72    52   110    1
    73    52   111    1
    74    53    54    1
    75    54    55    2
    76    54    56    1
    77    56   112    1
    78    56   113    1
    79    56   114    1
    80    57   115    1
    81    57   116    1
    82    57   117    1
    83    58   118    1
    84    58   119    1
    85    58   120    1
    86    59   121    1
    87    59   122    1
    88    59   123    1
    89    60    61    2
    90     1    47    1
    91     1    62    1
    92     2    63    1
    93     3    64    1
    94     4    65    1
    95     5     6    1
    96     7     8    2
    97     9    78    1
    98    15    79    1
    99    18    80    1
   100    18    81    1
   101    19    82    1
   102    19    83    1
   103    20    23    1
   104    21    84    1
   105    21    85    1
   106    22    86    1
   107    22    87    1
   108    27    45    1
   109    28    34    1
   110    32    58    1
   111    33    46    2
   112    36    51    1
   113    36    66    1
   114    37    52    1
   115    37    67    1
   116    38    53    1
   117    38    68    1
   118    42    48    1
   119    42    72    1
   120    43    44    2
   121    60    73    1
   122    61    74    1
   123    39    69    1
   124    39    57    1
   125    40    70    1
   126    40    50    1
   127    41    71    1
   128    41    49    1
