@<TRIPOS>MOLECULE
*****
 123 128 0 0 0
SMALL
GASTEIGER

@<TRIPOS>ATOM
     1 C         4.052689   3.221018   1.792348 C.3        1 UNL1     0.0009
     2 C         5.30488   4.509342   1.334883 C.2        1 UNL1     -0.0787
     3 C         6.668566   4.879412   1.019519 C.2        1 UNL1     -0.0649
     4 C         7.246217   6.386793   0.509148 C.2        1 UNL1     -0.0542
     5 C         8.308539   7.06449   -0.138368 C.2        1 UNL1     0.0115
     6 C         9.75399   6.903833   -0.684432 C.3        1 UNL1     -0.0348
     7 C         8.054613   8.544636   -0.705534 C.2        1 UNL1     0.2441
     8 O         8.444461   9.552744   -0.132592 O.2        1 UNL1     -0.2702
     9 N         7.585919   8.59554   -2.029878 N.am        1 UNL1     -0.2772
     10 C         6.211939   8.526121   -2.056006 C.2        1 UNL1     0.1049
     11 C         5.688907   7.315396   -1.986693 C.2        1 UNL1     0.0801
     12 C         4.156011   9.514913   -1.029954 C.ar        1 UNL1     0.0753
     13 C         3.725882   8.171475   -0.787526 C.ar        1 UNL1     0.0305
     14 C         4.418866   7.028049   -1.376934 C.2        1 UNL1     0.0924
     15 N         6.276744   6.112438   -2.104445 N.pl3        1 UNL1     -0.3170
     16 C         5.238811   5.116149   -2.123406 C.3        1 UNL1     0.1275
     17 N         4.105916   5.735848   -1.342225 N.2        1 UNL1     -0.2557
     18 C         4.747694   5.002187   -3.563378 C.3        1 UNL1     0.0016
     19 C         5.935568   4.688357   -4.458954 C.3        1 UNL1     0.0026
     20 N         6.541967   3.441952   -4.011983 N.3        1 UNL1     -0.3018
     21 C         6.990665   3.43366   -2.618078 C.3        1 UNL1     0.0026
     22 C         5.780744   3.746564   -1.735991 C.3        1 UNL1     0.0016
     23 C         7.486576   2.899686   -4.968177 C.3        1 UNL1     0.0012
     24 C         8.596115   2.119285   -4.245921 C.3        1 UNL1     -0.0339
     25 C         8.296442   0.611478   -4.21817 C.3        1 UNL1     -0.0615
     26 C         9.940835   2.410209   -4.889249 C.3        1 UNL1     -0.0615
     27 C         3.421138   10.603028   -0.565103 C.ar        1 UNL1     0.1347
     28 C         2.22426   10.473927   0.116709 C.ar        1 UNL1     0.0342
     29 C         1.845611   9.141611   0.386382 C.ar        1 UNL1     0.1435
     30 C         2.590399   8.04191   -0.0416 C.ar        1 UNL1     0.0774
     31 O         0.651136   8.847706   0.944822 O.3        1 UNL1     -0.4436
     32 C         0.432717   7.464864   0.627154 C.3        1 UNL1     0.3143
     33 C         1.813377   6.893375   0.375379 C.2        1 UNL1     0.2504
     34 C         1.260001   11.585732   0.423621 C.3        1 UNL1     -0.0327
     35 O         -0.072074   6.830906   1.808905 O.2        1 UNL1     -0.4528
     36 C         -2.299577   4.003993   0.60272 C.3        1 UNL1     0.0854
     37 C         -1.945639   2.788876   -0.338418 C.3        1 UNL1     0.0236
     38 C         -2.26992   1.342729   0.274154 C.3        1 UNL1     0.1131
     39 C         -1.748658   0.967529   1.719762 C.3        1 UNL1     0.0200
     40 C         -0.194751   1.356646   2.184949 C.3        1 UNL1     0.0661
     41 C         1.217373   1.031268   1.303107 C.3        1 UNL1     0.0091
     42 C         2.79326   1.963969   1.193326 C.3        1 UNL1     0.0661
     43 C         5.36336   9.712557   -1.869897 C.2        1 UNL1     0.2131
     44 O         5.607109   10.746325   -2.465419 O.2        1 UNL1     -0.2851
     45 O         3.933038   11.876686   -0.804247 O.3        1 UNL1     -0.5056
     46 O         2.192283   5.751393   0.510146 O.2        1 UNL1     -0.2836
     47 C         4.206765   2.825486   3.285599 C.3        1 UNL1     -0.0566
     48 O         3.647126   0.767926   1.392103 O.3        1 UNL1     -0.3909
     49 C         0.833504   0.645907   -0.108146 C.3        1 UNL1     -0.0577
     50 O         -0.143083   2.66633   2.713891 O.3        1 UNL1     -0.3910
     51 O         -2.688024   3.672683   1.916787 O.3        1 UNL1     -0.3753
     52 C         -0.660011   3.063785   -1.184902 C.3        1 UNL1     -0.0564
     53 O         -2.259619   0.24223   -0.7462 O.3        1 UNL1     -0.4608
     54 C         -2.686892   -1.042488   -0.534376 C.2        1 UNL1     0.3042
     55 O         -2.149988   -1.902849   0.162295 O.2        1 UNL1     -0.2512
     56 C         -3.990595   -1.361636   -1.209072 C.3        1 UNL1     0.0332
     57 C         -2.932845   1.267187   2.752274 C.3        1 UNL1     -0.0567
     58 C         -0.366092   7.441086   -0.696806 C.3        1 UNL1     0.0210
     59 C         -3.781131   2.76004   2.006597 C.3        1 UNL1     0.0372
     60 C         -1.237789   5.040623   0.717455 C.2        1 UNL1     -0.0208
     61 C         -0.758819   5.672455   1.789891 C.2        1 UNL1     0.0882
     62 H         3.273331   3.991501   1.75151 H        1 UNL1     0.0365
     63 H         4.689582   5.410995   1.36486 H        1 UNL1     0.0576
     64 H         7.458015   4.130287   0.926295 H        1 UNL1     0.0615
     65 H         6.416327   7.067765   0.716614 H        1 UNL1     0.0622
     66 H         -3.14953   4.49652   0.109724 H        1 UNL1     0.0645
     67 H         -2.689015   2.854392   -1.151842 H        1 UNL1     0.0362
     68 H         -3.363324   1.424711   0.370424 H        1 UNL1     0.0741
     69 H         -1.765902   -0.108814   1.827453 H        1 UNL1     0.0359
     70 H         -0.089271   0.697433   3.06777 H        1 UNL1     0.0600
     71 H         1.489583   0.046331   1.730608 H        1 UNL1     0.0348
     72 H         2.298273   2.311923   2.111602 H        1 UNL1     0.0602
     73 H         -0.943595   5.348378   -0.255163 H        1 UNL1     0.0628
     74 H         -0.965095   5.381348   2.820398 H        1 UNL1     0.1022
     75 H         9.820659   7.279835   -1.733818 H        1 UNL1     0.0279
     76 H         10.529364   7.47661   -0.180655 H        1 UNL1     0.0279
     77 H         10.045692   5.851105   -0.812395 H        1 UNL1     0.0279
     78 H         7.942945   7.79674   -2.550002 H        1 UNL1     0.1553
     79 H         7.174511   5.970455   -2.529637 H        1 UNL1     0.1484
     80 H         3.98487   4.21626   -3.619814 H        1 UNL1     0.0317
     81 H         4.26549   5.930843   -3.886996 H        1 UNL1     0.0317
     82 H         6.670233   5.506994   -4.462552 H        1 UNL1     0.0428
     83 H         5.563278   4.613184   -5.481108 H        1 UNL1     0.0428
     84 H         7.368649   2.462158   -2.284725 H        1 UNL1     0.0428
     85 H         7.834814   4.118171   -2.456297 H        1 UNL1     0.0428
     86 H         6.114082   3.601386   -0.725151 H        1 UNL1     0.0317
     87 H         5.013721   2.972988   -1.863867 H        1 UNL1     0.0317
     88 H         6.945939   2.208587   -5.628016 H        1 UNL1     0.0429
     89 H         7.907386   3.688891   -5.604454 H        1 UNL1     0.0429
     90 H         8.674166   2.478851   -3.213045 H        1 UNL1     0.0308
     91 H         9.115639   0.051576   -3.757162 H        1 UNL1     0.0233
     92 H         7.372476   0.411279   -3.670616 H        1 UNL1     0.0233
     93 H         8.152741   0.195685   -5.22281 H        1 UNL1     0.0233
     94 H         10.695462   1.706353   -4.521879 H        1 UNL1     0.0233
     95 H         9.869405   2.292035   -5.974097 H        1 UNL1     0.0233
     96 H         10.278379   3.426247   -4.666315 H        1 UNL1     0.0233
     97 H         0.544283   11.304309   1.190288 H        1 UNL1     0.0280
     98 H         1.768688   12.482077   0.801851 H        1 UNL1     0.0280
     99 H         0.701994   11.852658   -0.488779 H        1 UNL1     0.0280
     100 H         4.685247   12.100215   -0.284787 H        1 UNL1     0.2922
     101 H         4.822545   3.563173   3.79969 H        1 UNL1     0.0236
     102 H         4.581567   1.811914   3.424081 H        1 UNL1     0.0236
     103 H         3.242571   2.844094   3.820554 H        1 UNL1     0.0236
     104 H         3.177844   0.169132   2.005447 H        1 UNL1     0.2098
     105 H         0.52859   1.480541   -0.734425 H        1 UNL1     0.0234
     106 H         1.568542   0.031966   -0.628457 H        1 UNL1     0.0234
     107 H         0.0   -0.0   0.0 H        1 UNL1     0.0234
     108 H         0.797534   2.925846   2.75462 H        1 UNL1     0.2098
     109 H         -0.073474   2.150881   -1.358951 H        1 UNL1     0.0234
     110 H         -0.87139   3.551642   -2.142533 H        1 UNL1     0.0234
     111 H         0.018777   3.760555   -0.675291 H        1 UNL1     0.0234
     112 H         -4.763076   -1.548099   -0.456841 H        1 UNL1     0.0342
     113 H         -4.297912   -0.576655   -1.898422 H        1 UNL1     0.0342
     114 H         -3.858594   -2.283591   -1.791943 H        1 UNL1     0.0342
     115 H         -2.92827   0.562007   3.594822 H        1 UNL1     0.0234
     116 H         -2.914097   2.276333   3.168594 H        1 UNL1     0.0234
     117 H         -3.937982   1.090722   2.332153 H        1 UNL1     0.0234
     118 H         -0.297959   8.400222   -1.239412 H        1 UNL1     0.0309
     119 H         -0.064691   6.628881   -1.365897 H        1 UNL1     0.0309
     120 H         -1.442686   7.317792   -0.536024 H        1 UNL1     0.0309
     121 H         -3.867387   2.450364   3.047759 H        1 UNL1     0.0524
     122 H         -4.738734   3.224515   1.717984 H        1 UNL1     0.0524
     123 H         -3.602804   1.896417   1.372209 H        1 UNL1     0.0524
@<TRIPOS>BOND
     1     1     2    1
     2     1    42    1
     3     2     3    2
     4     3     4    1
     5     4     5    2
     6     5     7    1
     7     6    75    1
     8     6    76    1
     9     6    77    1
    10     7     9   am
    11     9    10    1
    12    10    11    2
    13    10    43    1
    14    11    14    1
    15    11    15    1
    16    12    13   ar
    17    12    27   ar
    18    12    43    1
    19    13    14    1
    20    13    30   ar
    21    14    17    2
    22    15    16    1
    23    16    17    1
    24    16    18    1
    25    16    22    1
    26    18    19    1
    27    19    20    1
    28    20    21    1
    29    21    22    1
    30    23    24    1
    31    23    88    1
    32    23    89    1
    33    24    25    1
    34    24    26    1
    35    24    90    1
    36    25    91    1
    37    25    92    1
    38    25    93    1
    39    26    94    1
    40    26    95    1
    41    26    96    1
    42    27    28   ar
    43    28    29   ar
    44    29    30   ar
    45    29    31    1
    46    30    33    1
    47    31    32    1
    48    32    33    1
    49    32    35    1
    50    34    97    1
    51    34    98    1
    52    34    99    1
    53    35    61    1
    54    36    37    1
    55    36    60    1
    56    37    38    1
    57    38    39    1
    58    39    40    1
    59    40    41    1
    60    41    42    1
    61    45   100    1
    62    47   101    1
    63    47   102    1
    64    47   103    1
    65    48   104    1
    66    49   105    1
    67    49   106    1
    68    49   107    1
    69    50   108    1
    70    51    59    1
    71    52   109    1
    72    52   110    1
    73    52   111    1
    74    53    54    1
    75    54    55    2
    76    54    56    1
    77    56   112    1
    78    56   113    1
    79    56   114    1
    80    57   115    1
    81    57   116    1
    82    57   117    1
    83    58   118    1
    84    58   119    1
    85    58   120    1
    86    59   121    1
    87    59   122    1
    88    59   123    1
    89    60    61    2
    90     1    47    1
    91     1    62    1
    92     2    63    1
    93     3    64    1
    94     4    65    1
    95     5     6    1
    96     7     8    2
    97     9    78    1
    98    15    79    1
    99    18    80    1
   100    18    81    1
   101    19    82    1
   102    19    83    1
   103    20    23    1
   104    21    84    1
   105    21    85    1
   106    22    86    1
   107    22    87    1
   108    27    45    1
   109    28    34    1
   110    32    58    1
   111    33    46    2
   112    36    51    1
   113    36    66    1
   114    37    52    1
   115    37    67    1
   116    38    53    1
   117    38    68    1
   118    42    48    1
   119    42    72    1
   120    43    44    2
   121    60    73    1
   122    61    74    1
   123    39    69    1
   124    39    57    1
   125    40    70    1
   126    40    50    1
   127    41    71    1
   128    41    49    1
