@<TRIPOS>MOLECULE
*****
 123 128 0 0 0
SMALL
GASTEIGER

@<TRIPOS>ATOM
     1 C         2.368657   1.667784   3.09499 C.3        1 UNL1     0.0009
     2 C         1.783979   2.560897   4.610753 C.2        1 UNL1     -0.0787
     3 C         1.592787   3.792312   5.347712 C.2        1 UNL1     -0.0649
     4 C         0.797997   4.006956   6.827102 C.2        1 UNL1     -0.0542
     5 C         0.163845   4.944539   7.67908 C.2        1 UNL1     0.0115
     6 C         -0.095404   6.45886   7.909177 C.3        1 UNL1     -0.0348
     7 C         -0.803854   4.407309   8.841806 C.2        1 UNL1     0.2441
     8 O         -0.463628   4.345817   10.015258 O.2        1 UNL1     -0.2702
     9 N         -2.150214   4.25873   8.465783 N.am        1 UNL1     -0.2772
     10 C         -2.364967   3.008115   7.93365 C.2        1 UNL1     0.1049
     11 C         -2.060121   2.858439   6.657371 C.2        1 UNL1     0.0801
     12 C         -1.958297   0.576282   8.355719 C.ar        1 UNL1     0.0753
     13 C         -1.439557   0.512091   7.023279 C.ar        1 UNL1     0.0305
     14 C         -1.595938   1.622905   6.086962 C.2        1 UNL1     0.0924
     15 N         -1.767335   3.781392   5.72519 N.pl3        1 UNL1     -0.3170
     16 C         -1.680914   3.110994   4.455012 C.3        1 UNL1     0.1275
     17 N         -1.27085   1.700027   4.799602 N.2        1 UNL1     -0.2557
     18 C         -3.097551   3.015876   3.896626 C.3        1 UNL1     0.0016
     19 C         -3.688637   4.415035   3.829085 C.3        1 UNL1     0.0026
     20 N         -2.843487   5.2392   2.976148 N.3        1 UNL1     -0.3018
     21 C         -1.445062   5.340954   3.398548 C.3        1 UNL1     0.0026
     22 C         -0.869925   3.924652   3.45511 C.3        1 UNL1     0.0016
     23 C         -3.46918   6.492558   2.604336 C.3        1 UNL1     0.0012
     24 C         -3.233457   6.791388   1.115413 C.3        1 UNL1     -0.0339
     25 C         -2.430818   5.669189   0.436813 C.3        1 UNL1     -0.0615
     26 C         -4.560122   7.031335   0.416011 C.3        1 UNL1     -0.0615
     27 C         -1.912427   -0.528988   9.202118 C.ar        1 UNL1     0.1347
     28 C         -1.410065   -1.75898   8.816367 C.ar        1 UNL1     0.0342
     29 C         -0.860488   -1.784777   7.516958 C.ar        1 UNL1     0.1435
     30 C         -0.866679   -0.675324   6.670615 C.ar        1 UNL1     0.0774
     31 O         -0.432039   -2.936492   6.955717 O.3        1 UNL1     -0.4436
     32 C         -0.404618   -2.664874   5.54634 C.3        1 UNL1     0.3143
     33 C         -0.285334   -1.158322   5.435497 C.2        1 UNL1     0.2504
     34 C         -1.555663   -3.048309   9.575664 C.3        1 UNL1     -0.0327
     35 O         0.811571   -3.218825   5.029354 O.2        1 UNL1     -0.4528
     36 C         0.067323   -4.191671   1.436618 C.3        1 UNL1     0.0854
     37 C         -0.456749   -3.294918   0.249728 C.3        1 UNL1     0.0236
     38 C         0.457721   -3.315217   -1.067495 C.3        1 UNL1     0.1131
     39 C         2.012776   -3.051098   -0.947856 C.3        1 UNL1     0.0200
     40 C         2.5892   -1.826313   0.026862 C.3        1 UNL1     0.0661
     41 C         2.048196   -0.218543   0.027018 C.3        1 UNL1     0.0091
     42 C         1.937268   0.999574   1.394238 C.3        1 UNL1     0.0661
     43 C         -2.627763   1.832099   8.77643 C.2        1 UNL1     0.2131
     44 O         -3.429867   1.893621   9.690532 O.2        1 UNL1     -0.2851
     45 O         -2.397325   -0.369264   10.498575 O.3        1 UNL1     -0.5056
     46 O         0.200426   -0.504789   4.539515 O.2        1 UNL1     -0.2836
     47 C         3.918843   1.585757   3.081709 C.3        1 UNL1     -0.0566
     48 O         2.570157   2.095598   0.621387 O.3        1 UNL1     -0.3909
     49 C         0.746455   -0.141609   -0.73917 C.3        1 UNL1     -0.0577
     50 O         2.757069   -2.279744   1.354997 O.3        1 UNL1     -0.3910
     51 O         1.347727   -4.755684   1.263746 O.3        1 UNL1     -0.3753
     52 C         -1.140887   -1.987343   0.766596 C.3        1 UNL1     -0.0564
     53 O         -0.223987   -2.753074   -2.280588 O.3        1 UNL1     -0.4608
     54 C         -0.069778   -3.210784   -3.563028 C.2        1 UNL1     0.3042
     55 O         0.860534   -3.880365   -4.010262 O.2        1 UNL1     -0.2512
     56 C         -1.223113   -2.873714   -4.464646 C.3        1 UNL1     0.0332
     57 C         2.738634   -4.47391   -0.86472 C.3        1 UNL1     -0.0567
     58 C         -1.780991   -3.098577   4.990435 C.3        1 UNL1     0.0210
     59 C         1.355532   -6.161633   1.020613 C.3        1 UNL1     0.0372
     60 C         0.065184   -3.53266   2.771106 C.2        1 UNL1     -0.0208
     61 C         0.993723   -3.515708   3.728328 C.2        1 UNL1     0.0882
     62 H         2.009333   0.728782   3.533023 H        1 UNL1     0.0365
     63 H         1.482531   1.72006   5.238918 H        1 UNL1     0.0576
     64 H         1.820277   4.765025   4.905914 H        1 UNL1     0.0615
     65 H         0.691148   2.990455   7.215422 H        1 UNL1     0.0622
     66 H         -0.660558   -5.012403   1.504695 H        1 UNL1     0.0645
     67 H         -1.361676   -3.819408   -0.103224 H        1 UNL1     0.0362
     68 H         0.36233   -4.377033   -1.3413 H        1 UNL1     0.0741
     69 H         2.395498   -2.778605   -1.922371 H        1 UNL1     0.0359
     70 H         3.619588   -1.737717   -0.367486 H        1 UNL1     0.0600
     71 H         2.755503   0.223468   -0.701886 H        1 UNL1     0.0348
     72 H         2.64596   0.229177   1.731222 H        1 UNL1     0.0602
     73 H         -0.89793   -3.12718   2.958842 H        1 UNL1     0.0628
     74 H         2.020944   -3.857524   3.597117 H        1 UNL1     0.1022
     75 H         0.700429   7.071453   7.420901 H        1 UNL1     0.0279
     76 H         -1.005035   6.866897   7.474267 H        1 UNL1     0.0279
     77 H         0.018853   6.754661   8.962337 H        1 UNL1     0.0279
     78 H         -2.381972   4.941336   7.747163 H        1 UNL1     0.1553
     79 H         -1.999253   4.753812   5.81207 H        1 UNL1     0.1484
     80 H         -3.060429   2.548475   2.905201 H        1 UNL1     0.0317
     81 H         -3.722885   2.371429   4.523759 H        1 UNL1     0.0317
     82 H         -3.795824   4.860434   4.829107 H        1 UNL1     0.0428
     83 H         -4.699315   4.323852   3.430005 H        1 UNL1     0.0428
     84 H         -0.814981   5.898799   2.698821 H        1 UNL1     0.0428
     85 H         -1.342843   5.88942   4.345149 H        1 UNL1     0.0428
     86 H         0.18195   4.046305   3.636075 H        1 UNL1     0.0317
     87 H         -0.90476   3.466034   2.459342 H        1 UNL1     0.0317
     88 H         -4.549603   6.398826   2.775202 H        1 UNL1     0.0429
     89 H         -3.114263   7.317911   3.234891 H        1 UNL1     0.0429
     90 H         -2.671675   7.72831   1.02166 H        1 UNL1     0.0308
     91 H         -1.491337   6.046873   0.022286 H        1 UNL1     0.0233
     92 H         -2.213159   4.866907   1.145739 H        1 UNL1     0.0233
     93 H         -2.980015   5.204911   -0.391234 H        1 UNL1     0.0233
     94 H         -4.434588   6.95269   -0.669297 H        1 UNL1     0.0233
     95 H         -5.288152   6.276753   0.726721 H        1 UNL1     0.0233
     96 H         -4.959249   8.023011   0.646756 H        1 UNL1     0.0233
     97 H         -2.057759   -3.812033   8.989272 H        1 UNL1     0.0280
     98 H         -0.583973   -3.475293   9.856307 H        1 UNL1     0.0280
     99 H         -2.144095   -2.873028   10.491153 H        1 UNL1     0.0280
     100 H         -2.04765   0.373497   10.958636 H        1 UNL1     0.2922
     101 H         4.276508   1.230373   4.047853 H        1 UNL1     0.0236
     102 H         4.395055   2.520591   2.787955 H        1 UNL1     0.0236
     103 H         4.288002   0.842108   2.355829 H        1 UNL1     0.0236
     104 H         2.656329   2.865203   1.217419 H        1 UNL1     0.2098
     105 H         0.684866   0.689142   -1.437647 H        1 UNL1     0.0234
     106 H         0.45064   -1.069423   -1.228642 H        1 UNL1     0.0234
     107 H         -0.0   0.0   0.0 H        1 UNL1     0.0234
     108 H         2.101168   -2.987611   1.504955 H        1 UNL1     0.2098
     109 H         -2.013833   -2.197162   1.400357 H        1 UNL1     0.0234
     110 H         -0.452213   -1.323081   1.299725 H        1 UNL1     0.0234
     111 H         -1.516163   -1.372158   -0.062055 H        1 UNL1     0.0234
     112 H         -2.083915   -3.502955   -4.218836 H        1 UNL1     0.0342
     113 H         -1.484873   -1.817735   -4.417387 H        1 UNL1     0.0342
     114 H         -0.9269   -3.097272   -5.498786 H        1 UNL1     0.0342
     115 H         2.055552   -5.2963   -1.118219 H        1 UNL1     0.0234
     116 H         3.614578   -4.563808   -1.510234 H        1 UNL1     0.0234
     117 H         3.039805   -4.754963   0.159119 H        1 UNL1     0.0234
     118 H         -1.706034   -3.995946   4.351596 H        1 UNL1     0.0309
     119 H         -2.523754   -3.277952   5.774227 H        1 UNL1     0.0309
     120 H         -2.219749   -2.34911   4.32268 H        1 UNL1     0.0309
     121 H         0.342427   -6.454406   0.74628 H        1 UNL1     0.0524
     122 H         2.018914   -6.437885   0.184164 H        1 UNL1     0.0524
     123 H         1.671502   -6.695523   1.912362 H        1 UNL1     0.0524
@<TRIPOS>BOND
     1     1     2    1
     2     1    42    1
     3     2     3    2
     4     3     4    1
     5     4     5    2
     6     5     7    1
     7     6    75    1
     8     6    76    1
     9     6    77    1
    10     7     9   am
    11     9    10    1
    12    10    11    2
    13    10    43    1
    14    11    14    1
    15    11    15    1
    16    12    13   ar
    17    12    27   ar
    18    12    43    1
    19    13    14    1
    20    13    30   ar
    21    14    17    2
    22    15    16    1
    23    16    17    1
    24    16    18    1
    25    16    22    1
    26    18    19    1
    27    19    20    1
    28    20    21    1
    29    21    22    1
    30    23    24    1
    31    23    88    1
    32    23    89    1
    33    24    25    1
    34    24    26    1
    35    24    90    1
    36    25    91    1
    37    25    92    1
    38    25    93    1
    39    26    94    1
    40    26    95    1
    41    26    96    1
    42    27    28   ar
    43    28    29   ar
    44    29    30   ar
    45    29    31    1
    46    30    33    1
    47    31    32    1
    48    32    33    1
    49    32    35    1
    50    34    97    1
    51    34    98    1
    52    34    99    1
    53    35    61    1
    54    36    37    1
    55    36    60    1
    56    37    38    1
    57    38    39    1
    58    39    40    1
    59    40    41    1
    60    41    42    1
    61    45   100    1
    62    47   101    1
    63    47   102    1
    64    47   103    1
    65    48   104    1
    66    49   105    1
    67    49   106    1
    68    49   107    1
    69    50   108    1
    70    51    59    1
    71    52   109    1
    72    52   110    1
    73    52   111    1
    74    53    54    1
    75    54    55    2
    76    54    56    1
    77    56   112    1
    78    56   113    1
    79    56   114    1
    80    57   115    1
    81    57   116    1
    82    57   117    1
    83    58   118    1
    84    58   119    1
    85    58   120    1
    86    59   121    1
    87    59   122    1
    88    59   123    1
    89    60    61    2
    90     1    47    1
    91     1    62    1
    92     2    63    1
    93     3    64    1
    94     4    65    1
    95     5     6    1
    96     7     8    2
    97     9    78    1
    98    15    79    1
    99    18    80    1
   100    18    81    1
   101    19    82    1
   102    19    83    1
   103    20    23    1
   104    21    84    1
   105    21    85    1
   106    22    86    1
   107    22    87    1
   108    27    45    1
   109    28    34    1
   110    32    58    1
   111    33    46    2
   112    36    51    1
   113    36    66    1
   114    37    52    1
   115    37    67    1
   116    38    53    1
   117    38    68    1
   118    42    48    1
   119    42    72    1
   120    43    44    2
   121    60    73    1
   122    61    74    1
   123    39    69    1
   124    39    57    1
   125    40    70    1
   126    40    50    1
   127    41    71    1
   128    41    49    1
