@<TRIPOS>MOLECULE
*****
 123 128 0 0 0
SMALL
GASTEIGER

@<TRIPOS>ATOM
     1 C         5.219936   1.439975   0.823414 C.3        1 UNL1     0.0009
     2 C         6.759553   2.138206   0.062434 C.2        1 UNL1     -0.0787
     3 C         8.075769   1.947496   -0.509624 C.2        1 UNL1     -0.0649
     4 C         9.078824   3.110064   -1.222838 C.2        1 UNL1     -0.0542
     5 C         10.17762   3.319465   -2.09225 C.2        1 UNL1     0.0115
     6 C         11.321715   2.607675   -2.865376 C.3        1 UNL1     -0.0348
     7 C         10.407159   4.780661   -2.716114 C.2        1 UNL1     0.2441
     8 O         11.252658   5.5584   -2.295664 O.2        1 UNL1     -0.2702
     9 N         9.754114   5.007724   -3.940094 N.am        1 UNL1     -0.2772
     10 C         8.479435   5.478762   -3.724133 C.2        1 UNL1     0.1049
     11 C         7.556452   4.56739   -3.475686 C.2        1 UNL1     0.0801
     12 C         7.189476   7.191884   -2.436285 C.ar        1 UNL1     0.0753
     13 C         6.332306   6.122403   -2.02388 C.ar        1 UNL1     0.0305
     14 C         6.411805   4.798346   -2.636747 C.2        1 UNL1     0.0924
     15 N         7.606521   3.230274   -3.602732 N.pl3        1 UNL1     -0.3170
     16 C         6.283027   2.716758   -3.368388 C.3        1 UNL1     0.1275
     17 N         5.641285   3.730064   -2.452362 N.2        1 UNL1     -0.2557
     18 C         5.524996   2.800496   -4.689781 C.3        1 UNL1     0.0016
     19 C         6.311927   2.047307   -5.750459 C.3        1 UNL1     0.0026
     20 N         6.46811   0.663939   -5.322757 N.3        1 UNL1     -0.3018
     21 C         7.132393   0.484034   -4.030189 C.3        1 UNL1     0.0026
     22 C         6.32263   1.244931   -2.978898 C.3        1 UNL1     0.0016
     23 C         6.936247   -0.205034   -6.384065 C.3        1 UNL1     0.0012
     24 C         5.836693   -0.408128   -7.438337 C.3        1 UNL1     -0.0339
     25 C         6.001034   0.565395   -8.617024 C.3        1 UNL1     -0.0615
     26 C         5.823044   -1.853464   -7.904809 C.3        1 UNL1     -0.0615
     27 C         7.027573   8.481087   -1.934428 C.ar        1 UNL1     0.1347
     28 C         6.023121   8.829436   -1.049115 C.ar        1 UNL1     0.0342
     29 C         5.221893   7.750202   -0.619638 C.ar        1 UNL1     0.1435
     30 C         5.395255   6.44653   -1.086121 C.ar        1 UNL1     0.0774
     31 O         4.13349   7.945602   0.15638 O.3        1 UNL1     -0.4436
     32 C         3.347771   6.756402   -0.014862 C.3        1 UNL1     0.3143
     33 C         4.331427   5.691954   -0.457113 C.2        1 UNL1     0.2504
     34 C         5.633087   10.229504   -0.664687 C.3        1 UNL1     -0.0327
     35 O         2.870379   6.371127   1.280094 O.2        1 UNL1     -0.4528
     36 C         -0.451815   4.632606   0.689615 C.3        1 UNL1     0.0854
     37 C         -0.772473   3.373921   -0.205043 C.3        1 UNL1     0.0236
     38 C         -1.503694   2.169272   0.560387 C.3        1 UNL1     0.1131
     39 C         -0.904279   1.623254   1.918634 C.3        1 UNL1     0.0200
     40 C         0.737743   1.37739   2.079116 C.3        1 UNL1     0.0661
     41 C         1.725749   0.526267   0.9942 C.3        1 UNL1     0.0091
     42 C         3.487563   0.771509   0.54557 C.3        1 UNL1     0.0661
     43 C         8.19994   6.902312   -3.48384 C.2        1 UNL1     0.2131
     44 O         8.703885   7.75852   -4.187888 O.2        1 UNL1     -0.2851
     45 O         7.932681   9.454461   -2.352472 O.3        1 UNL1     -0.5056
     46 O         4.263113   4.492803   -0.304717 O.2        1 UNL1     -0.2836
     47 C         5.488269   1.018294   2.293164 C.3        1 UNL1     -0.0566
     48 O         3.840362   -0.66227   0.683139 O.3        1 UNL1     -0.3909
     49 C         0.966424   0.318316   -0.297185 C.3        1 UNL1     -0.0577
     50 O         1.384244   2.564511   2.492038 O.3        1 UNL1     -0.3910
     51 O         -0.683449   4.481019   2.071932 O.3        1 UNL1     -0.3753
     52 C         0.337123   3.125022   -1.278259 C.3        1 UNL1     -0.0564
     53 O         -2.106347   1.149831   -0.361499 O.3        1 UNL1     -0.4608
     54 C         -2.432718   -0.136563   -0.020027 C.2        1 UNL1     0.3042
     55 O         -1.89411   -1.172116   -0.409092 O.2        1 UNL1     -0.2512
     56 C         -3.543404   -0.228032   0.987308 C.3        1 UNL1     0.0332
     57 C         -1.667605   2.362195   3.11424 C.3        1 UNL1     -0.0567
     58 C         2.367552   7.043225   -1.176082 C.3        1 UNL1     0.0210
     59 C         -1.003745   5.688157   2.761928 C.3        1 UNL1     0.0372
     60 C         0.926648   5.174158   0.54223 C.2        1 UNL1     -0.0208
     61 C         1.802671   5.571497   1.466053 C.2        1 UNL1     0.0882
     62 H         4.801538   2.45305   0.859918 H        1 UNL1     0.0365
     63 H         6.553018   3.208338   0.130475 H        1 UNL1     0.0576
     64 H         8.486315   0.949928   -0.681141 H        1 UNL1     0.0615
     65 H         8.627066   4.060807   -0.927061 H        1 UNL1     0.0622
     66 H         -1.125129   5.416358   0.31488 H        1 UNL1     0.0645
     67 H         -1.57265   3.722303   -0.880992 H        1 UNL1     0.0362
     68 H         -2.443674   2.670721   0.836991 H        1 UNL1     0.0741
     69 H         -1.311042   0.638773   2.107708 H        1 UNL1     0.0359
     70 H         0.746834   0.730689   2.977312 H        1 UNL1     0.0600
     71 H         1.675817   -0.486173   1.440775 H        1 UNL1     0.0348
     72 H         3.344891   1.286362   1.50676 H        1 UNL1     0.0602
     73 H         1.128039   5.341352   -0.486719 H        1 UNL1     0.0628
     74 H         1.698054   5.385504   2.535492 H        1 UNL1     0.1022
     75 H         11.286366   1.505315   -2.690484 H        1 UNL1     0.0279
     76 H         11.288339   2.673889   -3.950536 H        1 UNL1     0.0279
     77 H         12.318864   2.857383   -2.474173 H        1 UNL1     0.0279
     78 H         9.674325   4.132035   -4.452812 H        1 UNL1     0.1553
     79 H         8.284853   2.749162   -4.164275 H        1 UNL1     0.1484
     80 H         4.523801   2.373546   -4.55529 H        1 UNL1     0.0317
     81 H         5.382889   3.843051   -4.993979 H        1 UNL1     0.0317
     82 H         7.288883   2.515246   -5.941514 H        1 UNL1     0.0428
     83 H         5.754609   2.121238   -6.684793 H        1 UNL1     0.0428
     84 H         7.165648   -0.557385   -3.695297 H        1 UNL1     0.0428
     85 H         8.188176   0.786091   -4.067632 H        1 UNL1     0.0428
     86 H         6.758365   0.98319   -2.032528 H        1 UNL1     0.0317
     87 H         5.308956   0.830866   -2.914777 H        1 UNL1     0.0317
     88 H         7.797195   0.277017   -6.865406 H        1 UNL1     0.0429
     89 H         7.286493   -1.166482   -5.986924 H        1 UNL1     0.0429
     90 H         4.858321   -0.233636   -6.975137 H        1 UNL1     0.0308
     91 H         6.979938   0.452569   -9.092546 H        1 UNL1     0.0233
     92 H         5.219249   0.404292   -9.362991 H        1 UNL1     0.0233
     93 H         5.916772   1.614128   -8.307357 H        1 UNL1     0.0233
     94 H         5.178106   -1.960626   -8.783676 H        1 UNL1     0.0233
     95 H         6.832661   -2.16435   -8.187628 H        1 UNL1     0.0233
     96 H         5.45415   -2.521991   -7.121893 H        1 UNL1     0.0233
     97 H         4.788928   10.244331   0.018252 H        1 UNL1     0.0280
     98 H         6.445498   10.758826   -0.149845 H        1 UNL1     0.0280
     99 H         5.356464   10.796852   -1.568396 H        1 UNL1     0.0280
     100 H         7.53691   10.224775   -2.720716 H        1 UNL1     0.2922
     101 H         4.567187   0.649234   2.743783 H        1 UNL1     0.0236
     102 H         5.947365   1.806932   2.888366 H        1 UNL1     0.0236
     103 H         6.191156   0.171073   2.359188 H        1 UNL1     0.0236
     104 H         4.18979   -0.794719   1.586094 H        1 UNL1     0.2098
     105 H         0.850504   1.215838   -0.899538 H        1 UNL1     0.0234
     106 H         1.330346   -0.504829   -0.911938 H        1 UNL1     0.0234
     107 H         0.0   -0.0   0.0 H        1 UNL1     0.0234
     108 H         1.273213   3.2194   1.776105 H        1 UNL1     0.2098
     109 H         1.324117   2.957388   -0.82499 H        1 UNL1     0.0234
     110 H         0.101003   2.299156   -1.957918 H        1 UNL1     0.0234
     111 H         0.458519   3.990548   -1.943146 H        1 UNL1     0.0234
     112 H         -3.750086   -1.27726   1.219144 H        1 UNL1     0.0342
     113 H         -3.322931   0.335984   1.892361 H        1 UNL1     0.0342
     114 H         -4.449399   0.202627   0.539122 H        1 UNL1     0.0342
     115 H         -2.747495   2.16049   3.095798 H        1 UNL1     0.0234
     116 H         -1.300643   2.095378   4.107315 H        1 UNL1     0.0234
     117 H         -1.6549   3.462564   3.030769 H        1 UNL1     0.0234
     118 H         1.472307   7.5931   -0.8367 H        1 UNL1     0.0309
     119 H         2.830563   7.589074   -2.004255 H        1 UNL1     0.0309
     120 H         1.951834   6.12777   -1.611086 H        1 UNL1     0.0309
     121 H         -0.149706   6.358306   2.667723 H        1 UNL1     0.0524
     122 H         -1.877353   6.200351   2.325461 H        1 UNL1     0.0524
     123 H         -1.203641   5.480669   3.809346 H        1 UNL1     0.0524
@<TRIPOS>BOND
     1     1     2    1
     2     1    42    1
     3     2     3    2
     4     3     4    1
     5     4     5    2
     6     5     7    1
     7     6    75    1
     8     6    76    1
     9     6    77    1
    10     7     9   am
    11     9    10    1
    12    10    11    2
    13    10    43    1
    14    11    14    1
    15    11    15    1
    16    12    13   ar
    17    12    27   ar
    18    12    43    1
    19    13    14    1
    20    13    30   ar
    21    14    17    2
    22    15    16    1
    23    16    17    1
    24    16    18    1
    25    16    22    1
    26    18    19    1
    27    19    20    1
    28    20    21    1
    29    21    22    1
    30    23    24    1
    31    23    88    1
    32    23    89    1
    33    24    25    1
    34    24    26    1
    35    24    90    1
    36    25    91    1
    37    25    92    1
    38    25    93    1
    39    26    94    1
    40    26    95    1
    41    26    96    1
    42    27    28   ar
    43    28    29   ar
    44    29    30   ar
    45    29    31    1
    46    30    33    1
    47    31    32    1
    48    32    33    1
    49    32    35    1
    50    34    97    1
    51    34    98    1
    52    34    99    1
    53    35    61    1
    54    36    37    1
    55    36    60    1
    56    37    38    1
    57    38    39    1
    58    39    40    1
    59    40    41    1
    60    41    42    1
    61    45   100    1
    62    47   101    1
    63    47   102    1
    64    47   103    1
    65    48   104    1
    66    49   105    1
    67    49   106    1
    68    49   107    1
    69    50   108    1
    70    51    59    1
    71    52   109    1
    72    52   110    1
    73    52   111    1
    74    53    54    1
    75    54    55    2
    76    54    56    1
    77    56   112    1
    78    56   113    1
    79    56   114    1
    80    57   115    1
    81    57   116    1
    82    57   117    1
    83    58   118    1
    84    58   119    1
    85    58   120    1
    86    59   121    1
    87    59   122    1
    88    59   123    1
    89    60    61    2
    90     1    47    1
    91     1    62    1
    92     2    63    1
    93     3    64    1
    94     4    65    1
    95     5     6    1
    96     7     8    2
    97     9    78    1
    98    15    79    1
    99    18    80    1
   100    18    81    1
   101    19    82    1
   102    19    83    1
   103    20    23    1
   104    21    84    1
   105    21    85    1
   106    22    86    1
   107    22    87    1
   108    27    45    1
   109    28    34    1
   110    32    58    1
   111    33    46    2
   112    36    51    1
   113    36    66    1
   114    37    52    1
   115    37    67    1
   116    38    53    1
   117    38    68    1
   118    42    48    1
   119    42    72    1
   120    43    44    2
   121    60    73    1
   122    61    74    1
   123    39    69    1
   124    39    57    1
   125    40    70    1
   126    40    50    1
   127    41    71    1
   128    41    49    1
