@<TRIPOS>MOLECULE
*****
 123 128 0 0 0
SMALL
GASTEIGER

@<TRIPOS>ATOM
     1 C         -4.004469   0.572676   -3.567723 C.3        1 UNL1     0.0009
     2 C         -5.282689   1.715338   -4.27307 C.2        1 UNL1     -0.0787
     3 C         -6.629304   2.247009   -4.272849 C.2        1 UNL1     -0.0649
     4 C         -7.24571   3.51973   -5.203752 C.2        1 UNL1     -0.0542
     5 C         -8.279468   4.482022   -5.31518 C.2        1 UNL1     0.0115
     6 C         -9.65239   4.92397   -4.738039 C.3        1 UNL1     -0.0348
     7 C         -8.062614   5.747048   -6.279375 C.2        1 UNL1     0.2441
     8 O         -8.567298   5.831022   -7.390576 O.2        1 UNL1     -0.2702
     9 N         -7.471306   6.863273   -5.662488 N.am        1 UNL1     -0.2772
     10 C         -6.099641   6.780504   -5.733235 C.2        1 UNL1     0.1049
     11 C         -5.512737   6.04126   -4.809501 C.2        1 UNL1     0.0801
     12 C         -4.21765   6.354244   -7.325009 C.ar        1 UNL1     0.0753
     13 C         -3.731755   5.402384   -6.372919 C.ar        1 UNL1     0.0305
     14 C         -4.292848   5.311859   -5.026802 C.2        1 UNL1     0.0924
     15 N         -6.011619   5.517492   -3.676668 N.pl3        1 UNL1     -0.3170
     16 C         -4.91776   4.94329   -2.939092 C.3        1 UNL1     0.1275
     17 N         -3.906282   4.567807   -3.994387 N.2        1 UNL1     -0.2557
     18 C         -4.282842   6.066207   -2.124451 C.3        1 UNL1     0.0016
     19 C         -5.356521   6.705995   -1.25873 C.3        1 UNL1     0.0026
     20 N         -5.926121   5.685623   -0.389577 N.3        1 UNL1     -0.3018
     21 C         -6.506939   4.533108   -1.08148 C.3        1 UNL1     0.0026
     22 C         -5.409991   3.903062   -1.941504 C.3        1 UNL1     0.0016
     23 C         -6.738272   6.240726   0.674807 C.3        1 UNL1     0.0012
     24 C         -6.823422   7.769737   0.545846 C.3        1 UNL1     -0.0339
     25 C         -6.910633   8.205973   -0.925939 C.3        1 UNL1     -0.0615
     26 C         -7.995777   8.296155   1.35532 C.3        1 UNL1     -0.0615
     27 C         -3.599445   6.517321   -8.562485 C.ar        1 UNL1     0.1347
     28 C         -2.468926   5.816696   -8.943407 C.ar        1 UNL1     0.0342
     29 C         -2.0375   4.850505   -8.009859 C.ar        1 UNL1     0.1435
     30 C         -2.668432   4.650693   -6.781356 C.ar        1 UNL1     0.0774
     31 O         -0.887282   4.164316   -8.186353 O.3        1 UNL1     -0.4436
     32 C         -0.554796   3.671567   -6.879631 C.3        1 UNL1     0.3143
     33 C         -1.866848   3.640908   -6.12214 C.2        1 UNL1     0.2504
     34 C         -1.60894   6.113957   -10.140135 C.3        1 UNL1     -0.0327
     35 O         -0.129522   2.311791   -7.032617 O.2        1 UNL1     -0.4528
     36 C         2.37353   1.684803   -4.248788 C.3        1 UNL1     0.0854
     37 C         2.18784   1.834117   -2.689703 C.3        1 UNL1     0.0236
     38 C         2.538865   0.521145   -1.838451 C.3        1 UNL1     0.1131
     39 C         1.903384   -0.869875   -2.242799 C.3        1 UNL1     0.0200
     40 C         0.29071   -0.973738   -2.65624 C.3        1 UNL1     0.0661
     41 C         -1.006362   -0.340775   -1.764853 C.3        1 UNL1     0.0091
     42 C         -2.618197   0.333333   -2.32429 C.3        1 UNL1     0.0661
     43 C         -5.347383   7.225216   -6.915898 C.2        1 UNL1     0.2131
     44 O         -5.594836   8.296671   -7.438859 O.2        1 UNL1     -0.2851
     45 O         -4.16262   7.432639   -9.449314 O.3        1 UNL1     -0.5056
     46 O         -2.18648   2.928003   -5.197232 O.2        1 UNL1     -0.2836
     47 C         -4.278589   -0.887276   -4.018701 C.3        1 UNL1     -0.0566
     48 O         -3.412561   -0.439368   -1.338878 O.3        1 UNL1     -0.3909
     49 C         -0.46417   0.616333   -0.726842 C.3        1 UNL1     -0.0577
     50 O         0.107793   -0.706071   -4.031965 O.3        1 UNL1     -0.3910
     51 O         2.651841   0.383515   -4.714218 O.3        1 UNL1     -0.3753
     52 C         0.976256   2.756236   -2.333738 C.3        1 UNL1     -0.0564
     53 O         2.695229   0.782219   -0.368853 O.3        1 UNL1     -0.4608
     54 C         2.40987   1.96398   0.263555 C.2        1 UNL1     0.3042
     55 O         2.584953   3.103004   -0.167502 O.2        1 UNL1     -0.2512
     56 C         1.761755   1.785907   1.607039 C.3        1 UNL1     0.0332
     57 C         2.960946   -1.632091   -3.169494 C.3        1 UNL1     -0.0567
     58 C         0.368972   4.730909   -6.234668 C.3        1 UNL1     0.0210
     59 C         4.037352   0.096019   -4.897447 C.3        1 UNL1     0.0372
     60 C         1.244187   2.201626   -5.068934 C.2        1 UNL1     -0.0208
     61 C         0.625404   1.666988   -6.122505 C.2        1 UNL1     0.0882
     62 H         -3.273445   0.986045   -4.273018 H        1 UNL1     0.0365
     63 H         -4.729553   2.148302   -5.109163 H        1 UNL1     0.0576
     64 H         -7.358617   1.958219   -3.51271 H        1 UNL1     0.0615
     65 H         -6.483167   3.673757   -5.972054 H        1 UNL1     0.0622
     66 H         3.235674   2.323738   -4.486519 H        1 UNL1     0.0645
     67 H         3.001413   2.516007   -2.386909 H        1 UNL1     0.0362
     68 H         3.610644   0.431322   -2.072427 H        1 UNL1     0.0741
     69 H         1.975895   -1.543866   -1.399659 H        1 UNL1     0.0359
     70 H         0.140382   -2.066477   -2.564682 H        1 UNL1     0.0600
     71 H         -1.258092   -1.219564   -1.139297 H        1 UNL1     0.0348
     72 H         -2.23711   -0.273188   -3.158688 H        1 UNL1     0.0602
     73 H         1.02773   3.198969   -4.776183 H        1 UNL1     0.0628
     74 H         0.747876   0.634366   -6.451033 H        1 UNL1     0.1022
     75 H         -9.552981   5.205557   -3.662 H        1 UNL1     0.0279
     76 H         -10.097249   5.815918   -5.173466 H        1 UNL1     0.0279
     77 H         -10.375301   4.097099   -4.67986 H        1 UNL1     0.0279
     78 H         -7.726493   6.884776   -4.677351 H        1 UNL1     0.1553
     79 H         -6.853388   5.841347   -3.236807 H        1 UNL1     0.1484
     80 H         -3.471494   5.650792   -1.514606 H        1 UNL1     0.0317
     81 H         -3.829172   6.817073   -2.78022 H        1 UNL1     0.0317
     82 H         -6.136058   7.188133   -1.866823 H        1 UNL1     0.0428
     83 H         -4.882662   7.505031   -0.687724 H        1 UNL1     0.0428
     84 H         -6.855405   3.745782   -0.405832 H        1 UNL1     0.0428
     85 H         -7.403116   4.809167   -1.65417 H        1 UNL1     0.0428
     86 H         -5.830573   2.992316   -2.325743 H        1 UNL1     0.0317
     87 H         -4.588278   3.554091   -1.304242 H        1 UNL1     0.0317
     88 H         -7.750498   5.825435   0.5841 H        1 UNL1     0.0429
     89 H         -6.357427   5.947155   1.661492 H        1 UNL1     0.0429
     90 H         -5.927058   8.218168   0.99043 H        1 UNL1     0.0308
     91 H         -5.915574   8.340082   -1.360651 H        1 UNL1     0.0233
     92 H         -7.463083   7.470067   -1.514879 H        1 UNL1     0.0233
     93 H         -7.442292   9.157338   -1.048737 H        1 UNL1     0.0233
     94 H         -8.754715   8.720281   0.689012 H        1 UNL1     0.0233
     95 H         -8.458532   7.47987   1.917012 H        1 UNL1     0.0233
     96 H         -7.679349   9.072724   2.057305 H        1 UNL1     0.0233
     97 H         -2.162729   6.622607   -10.923604 H        1 UNL1     0.0280
     98 H         -0.766768   6.772755   -9.891162 H        1 UNL1     0.0280
     99 H         -1.212625   5.171829   -10.552961 H        1 UNL1     0.0280
     100 H         -4.365062   7.081284   -10.298543 H        1 UNL1     0.2922
     101 H         -4.873577   -1.3999   -3.263148 H        1 UNL1     0.0236
     102 H         -3.371156   -1.436792   -4.266857 H        1 UNL1     0.0236
     103 H         -4.892009   -0.929667   -4.934185 H        1 UNL1     0.0236
     104 H         -3.360638   -1.381779   -1.592129 H        1 UNL1     0.2098
     105 H         0.284451   1.309343   -1.102496 H        1 UNL1     0.0234
     106 H         -1.225292   1.152906   -0.160531 H        1 UNL1     0.0234
     107 H         0.0   0.0   0.0 H        1 UNL1     0.0234
     108 H         0.502277   -1.44968   -4.527139 H        1 UNL1     0.2098
     109 H         0.330472   2.948256   -3.201955 H        1 UNL1     0.0234
     110 H         0.371636   2.371815   -1.505246 H        1 UNL1     0.0234
     111 H         1.307687   3.743624   -1.985652 H        1 UNL1     0.0234
     112 H         1.025835   2.57847   1.773206 H        1 UNL1     0.0342
     113 H         1.307657   0.802102   1.71551 H        1 UNL1     0.0342
     114 H         2.538727   1.880737   2.378069 H        1 UNL1     0.0342
     115 H         2.521112   -1.930068   -4.131234 H        1 UNL1     0.0234
     116 H         3.860769   -1.052653   -3.385414 H        1 UNL1     0.0234
     117 H         3.274452   -2.610405   -2.766311 H        1 UNL1     0.0234
     118 H         -0.071902   5.163397   -5.319468 H        1 UNL1     0.0309
     119 H         1.367715   4.346786   -6.004094 H        1 UNL1     0.0309
     120 H         0.521091   5.603978   -6.878653 H        1 UNL1     0.0309
     121 H         4.432481   -0.245512   -3.941107 H        1 UNL1     0.0524
     122 H         4.203934   -0.709303   -5.632119 H        1 UNL1     0.0524
     123 H         4.565957   0.986805   -5.224815 H        1 UNL1     0.0524
@<TRIPOS>BOND
     1     1     2    1
     2     1    42    1
     3     2     3    2
     4     3     4    1
     5     4     5    2
     6     5     7    1
     7     6    75    1
     8     6    76    1
     9     6    77    1
    10     7     9   am
    11     9    10    1
    12    10    11    2
    13    10    43    1
    14    11    14    1
    15    11    15    1
    16    12    13   ar
    17    12    27   ar
    18    12    43    1
    19    13    14    1
    20    13    30   ar
    21    14    17    2
    22    15    16    1
    23    16    17    1
    24    16    18    1
    25    16    22    1
    26    18    19    1
    27    19    20    1
    28    20    21    1
    29    21    22    1
    30    23    24    1
    31    23    88    1
    32    23    89    1
    33    24    25    1
    34    24    26    1
    35    24    90    1
    36    25    91    1
    37    25    92    1
    38    25    93    1
    39    26    94    1
    40    26    95    1
    41    26    96    1
    42    27    28   ar
    43    28    29   ar
    44    29    30   ar
    45    29    31    1
    46    30    33    1
    47    31    32    1
    48    32    33    1
    49    32    35    1
    50    34    97    1
    51    34    98    1
    52    34    99    1
    53    35    61    1
    54    36    37    1
    55    36    60    1
    56    37    38    1
    57    38    39    1
    58    39    40    1
    59    40    41    1
    60    41    42    1
    61    45   100    1
    62    47   101    1
    63    47   102    1
    64    47   103    1
    65    48   104    1
    66    49   105    1
    67    49   106    1
    68    49   107    1
    69    50   108    1
    70    51    59    1
    71    52   109    1
    72    52   110    1
    73    52   111    1
    74    53    54    1
    75    54    55    2
    76    54    56    1
    77    56   112    1
    78    56   113    1
    79    56   114    1
    80    57   115    1
    81    57   116    1
    82    57   117    1
    83    58   118    1
    84    58   119    1
    85    58   120    1
    86    59   121    1
    87    59   122    1
    88    59   123    1
    89    60    61    2
    90     1    47    1
    91     1    62    1
    92     2    63    1
    93     3    64    1
    94     4    65    1
    95     5     6    1
    96     7     8    2
    97     9    78    1
    98    15    79    1
    99    18    80    1
   100    18    81    1
   101    19    82    1
   102    19    83    1
   103    20    23    1
   104    21    84    1
   105    21    85    1
   106    22    86    1
   107    22    87    1
   108    27    45    1
   109    28    34    1
   110    32    58    1
   111    33    46    2
   112    36    51    1
   113    36    66    1
   114    37    52    1
   115    37    67    1
   116    38    53    1
   117    38    68    1
   118    42    48    1
   119    42    72    1
   120    43    44    2
   121    60    73    1
   122    61    74    1
   123    39    69    1
   124    39    57    1
   125    40    70    1
   126    40    50    1
   127    41    71    1
   128    41    49    1
