@<TRIPOS>MOLECULE
*****
 123 128 0 0 0
SMALL
GASTEIGER

@<TRIPOS>ATOM
     1 C         5.112336   1.911732   0.470168 C.3        1 UNL1     0.0009
     2 C         6.501223   2.801914   -0.375766 C.2        1 UNL1     -0.0787
     3 C         7.776959   2.777324   -1.059828 C.2        1 UNL1     -0.0649
     4 C         8.589974   4.069129   -1.79236 C.2        1 UNL1     -0.0542
     5 C         9.583561   4.430759   -2.735274 C.2        1 UNL1     0.0115
     6 C         10.725782   3.878249   -3.631593 C.3        1 UNL1     -0.0348
     7 C         9.606599   5.932405   -3.302298 C.2        1 UNL1     0.2441
     8 O         10.399362   6.778719   -2.912673 O.2        1 UNL1     -0.2702
     9 N         8.832282   6.137719   -4.457473 N.am        1 UNL1     -0.2772
     10 C         7.538481   6.45978   -4.117359 C.2        1 UNL1     0.1049
     11 C         6.739413   5.445085   -3.841483 C.2        1 UNL1     0.0801
     12 C         6.191362   7.970286   -2.647333 C.ar        1 UNL1     0.0753
     13 C         5.487799   6.798913   -2.221313 C.ar        1 UNL1     0.0305
     14 C         5.652112   5.517206   -2.903426 C.2        1 UNL1     0.0924
     15 N         6.917034   4.127408   -4.038221 N.pl3        1 UNL1     -0.3170
     16 C         5.678582   3.465449   -3.724696 C.3        1 UNL1     0.1275
     17 N         5.014995   4.365647   -2.711276 N.2        1 UNL1     -0.2557
     18 C         4.806852   3.521078   -4.975573 C.3        1 UNL1     0.0016
     19 C         5.575084   2.900784   -6.131706 C.3        1 UNL1     0.0026
     20 N         5.909615   1.525925   -5.786915 N.3        1 UNL1     -0.3018
     21 C         6.695981   1.365864   -4.562017 C.3        1 UNL1     0.0026
     22 C         5.903528   1.991743   -3.413022 C.3        1 UNL1     0.0016
     23 C         6.373887   0.756368   -6.923962 C.3        1 UNL1     0.0012
     24 C         5.217005   0.48319   -7.898003 C.3        1 UNL1     -0.0339
     25 C         5.255561   1.441429   -9.099814 C.3        1 UNL1     -0.0615
     26 C         5.240728   -0.969565   -8.340406 C.3        1 UNL1     -0.0615
     27 C         5.939609   9.213045   -2.070888 C.ar        1 UNL1     0.1347
     28 C         4.982983   9.414958   -1.092036 C.ar        1 UNL1     0.0342
     29 C         4.337316   8.239214   -0.65397 C.ar        1 UNL1     0.1435
     30 C         4.60492   6.981871   -1.19683 C.ar        1 UNL1     0.0774
     31 O         3.304116   8.284629   0.215192 O.3        1 UNL1     -0.4436
     32 C         2.634387   7.025838   0.048511 C.3        1 UNL1     0.3143
     33 C         3.682214   6.092255   -0.523062 C.2        1 UNL1     0.2504
     34 C         4.483711   10.748113   -0.608794 C.3        1 UNL1     -0.0327
     35 O         2.310874   6.538935   1.35676 O.2        1 UNL1     -0.4528
     36 C         -0.850963   4.478892   0.947984 C.3        1 UNL1     0.0854
     37 C         -1.113837   3.230605   0.020514 C.3        1 UNL1     0.0236
     38 C         -1.648681   1.924092   0.781243 C.3        1 UNL1     0.1131
     39 C         -0.883047   1.390692   2.058568 C.3        1 UNL1     0.0200
     40 C         0.783282   1.316437   2.075062 C.3        1 UNL1     0.0661
     41 C         1.758891   0.621465   0.87389 C.3        1 UNL1     0.0091
     42 C         3.441418   1.072801   0.298738 C.3        1 UNL1     0.0661
     43 C         7.134114   7.83403   -3.785275 C.2        1 UNL1     0.2131
     44 O         7.485083   8.767475   -4.484015 O.2        1 UNL1     -0.2851
     45 O         6.700175   10.294331   -2.511111 O.3        1 UNL1     -0.5056
     46 O         3.751852   4.887494   -0.425307 O.2        1 UNL1     -0.2836
     47 C         5.546404   1.4617   1.891096 C.3        1 UNL1     -0.0566
     48 O         3.951469   -0.319154   0.336484 O.3        1 UNL1     -0.3909
     49 C         0.918687   0.385977   -0.361463 C.3        1 UNL1     -0.0577
     50 O         1.335719   2.548329   2.493365 O.3        1 UNL1     -0.3910
     51 O         -0.947788   4.246981   2.335165 O.3        1 UNL1     -0.3753
     52 C         -0.079238   3.146457   -1.148875 C.3        1 UNL1     -0.0564
     53 O         -2.21814   0.884256   -0.138965 O.3        1 UNL1     -0.4608
     54 C         -2.359982   -0.446504   0.155806 C.2        1 UNL1     0.3042
     55 O         -1.678247   -1.381094   -0.263261 O.2        1 UNL1     -0.2512
     56 C         -3.450526   -0.729462   1.149467 C.3        1 UNL1     0.0332
     57 C         -1.614988   1.993862   3.346443 C.3        1 UNL1     -0.0567
     58 C         1.534951   7.25278   -1.0151 C.3        1 UNL1     0.0210
     59 C         -1.301403   5.391116   3.110908 C.3        1 UNL1     0.0372
     60 C         0.446412   5.171062   0.718032 C.2        1 UNL1     -0.0208
     61 C         1.351501   5.622233   1.587516 C.2        1 UNL1     0.0882
     62 H         4.595666   2.871616   0.590114 H        1 UNL1     0.0365
     63 H         6.191257   3.839966   -0.23851 H        1 UNL1     0.0576
     64 H         8.272811   1.837512   -1.312794 H        1 UNL1     0.0615
     65 H         8.068657   4.952924   -1.414712 H        1 UNL1     0.0622
     66 H         -1.631261   5.200356   0.667498 H        1 UNL1     0.0645
     67 H         -2.000169   3.518244   -0.571297 H        1 UNL1     0.0362
     68 H         -2.60882   2.309868   1.156518 H        1 UNL1     0.0741
     69 H         -1.167982   0.361294   2.230498 H        1 UNL1     0.0359
     70 H         0.935421   0.638339   2.936512 H        1 UNL1     0.0600
     71 H         1.852268   -0.407857   1.272307 H        1 UNL1     0.0348
     72 H         3.327955   1.529663   1.292578 H        1 UNL1     0.0602
     73 H         0.541554   5.400801   -0.314159 H        1 UNL1     0.0628
     74 H         1.357639   5.382571   2.651359 H        1 UNL1     0.1022
     75 H         10.768292   2.764051   -3.570042 H        1 UNL1     0.0279
     76 H         10.629414   4.050268   -4.701262 H        1 UNL1     0.0279
     77 H         11.725358   4.153934   -3.264788 H        1 UNL1     0.0279
     78 H         8.800689   5.280192   -5.004946 H        1 UNL1     0.1553
     79 H         7.591656   3.745337   -4.675277 H        1 UNL1     0.1484
     80 H         3.870362   2.983834   -4.782899 H        1 UNL1     0.0317
     81 H         4.53209   4.553856   -5.215418 H        1 UNL1     0.0317
     82 H         6.478512   3.478447   -6.376727 H        1 UNL1     0.0428
     83 H         4.936036   2.952449   -7.013748 H        1 UNL1     0.0428
     84 H         6.865351   0.321259   -4.282865 H        1 UNL1     0.0428
     85 H         7.707741   1.78095   -4.668617 H        1 UNL1     0.0428
     86 H         6.442597   1.739952   -2.518598 H        1 UNL1     0.0317
     87 H         4.947379   1.468831   -3.288773 H        1 UNL1     0.0317
     88 H         7.138592   1.346104   -7.446199 H        1 UNL1     0.0429
     89 H         6.851593   -0.178726   -6.604321 H        1 UNL1     0.0429
     90 H         4.264713   0.620662   -7.372214 H        1 UNL1     0.0308
     91 H         6.208229   1.37206   -9.633398 H        1 UNL1     0.0233
     92 H         4.439553   1.224534   -9.793137 H        1 UNL1     0.0233
     93 H         5.133313   2.489875   -8.802071 H        1 UNL1     0.0233
     94 H         4.580606   -1.112615   -9.202735 H        1 UNL1     0.0233
     95 H         6.253603   -1.252212   -8.640667 H        1 UNL1     0.0233
     96 H         4.911236   -1.636301   -7.538616 H        1 UNL1     0.0233
     97 H         3.647981   10.646004   0.077034 H        1 UNL1     0.0280
     98 H         5.255233   11.305344   -0.061525 H        1 UNL1     0.0280
     99 H         4.152708   11.352247   -1.469349 H        1 UNL1     0.0280
     100 H         6.19989   11.058613   -2.73741 H        1 UNL1     0.2922
     101 H         4.683045   1.079871   2.43559 H        1 UNL1     0.0236
     102 H         6.068622   2.240095   2.446409 H        1 UNL1     0.0236
     103 H         6.253773   0.616221   1.859683 H        1 UNL1     0.0236
     104 H         4.301473   -0.480785   1.23445 H        1 UNL1     0.2098
     105 H         0.700092   1.283996   -0.933816 H        1 UNL1     0.0234
     106 H         1.286955   -0.401044   -1.019418 H        1 UNL1     0.0234
     107 H         0.0   -0.0   0.0 H        1 UNL1     0.0234
     108 H         1.153822   3.201437   1.79042 H        1 UNL1     0.2098
     109 H         0.955533   3.079989   -0.78481 H        1 UNL1     0.0234
     110 H         -0.277969   2.320927   -1.840793 H        1 UNL1     0.0234
     111 H         -0.113678   4.041022   -1.784889 H        1 UNL1     0.0234
     112 H         -3.496661   -1.803086   1.35574 H        1 UNL1     0.0342
     113 H         -3.324525   -0.159989   2.069069 H        1 UNL1     0.0342
     114 H         -4.40849   -0.431071   0.701771 H        1 UNL1     0.0342
     115 H         -2.695071   1.792726   3.333998 H        1 UNL1     0.0234
     116 H         -1.222623   1.621888   4.294986 H        1 UNL1     0.0234
     117 H         -1.604028   3.096824   3.382439 H        1 UNL1     0.0234
     118 H         0.617763   7.684578   -0.577697 H        1 UNL1     0.0309
     119 H         1.865632   7.882367   -1.847249 H        1 UNL1     0.0309
     120 H         1.184424   6.316811   -1.463652 H        1 UNL1     0.0309
     121 H         -0.909465   5.241545   4.116577 H        1 UNL1     0.0524
     122 H         -0.855432   6.318861   2.71539 H        1 UNL1     0.0524
     123 H         -2.381315   5.504628   3.142527 H        1 UNL1     0.0524
@<TRIPOS>BOND
     1     1     2    1
     2     1    42    1
     3     2     3    2
     4     3     4    1
     5     4     5    2
     6     5     7    1
     7     6    75    1
     8     6    76    1
     9     6    77    1
    10     7     9   am
    11     9    10    1
    12    10    11    2
    13    10    43    1
    14    11    14    1
    15    11    15    1
    16    12    13   ar
    17    12    27   ar
    18    12    43    1
    19    13    14    1
    20    13    30   ar
    21    14    17    2
    22    15    16    1
    23    16    17    1
    24    16    18    1
    25    16    22    1
    26    18    19    1
    27    19    20    1
    28    20    21    1
    29    21    22    1
    30    23    24    1
    31    23    88    1
    32    23    89    1
    33    24    25    1
    34    24    26    1
    35    24    90    1
    36    25    91    1
    37    25    92    1
    38    25    93    1
    39    26    94    1
    40    26    95    1
    41    26    96    1
    42    27    28   ar
    43    28    29   ar
    44    29    30   ar
    45    29    31    1
    46    30    33    1
    47    31    32    1
    48    32    33    1
    49    32    35    1
    50    34    97    1
    51    34    98    1
    52    34    99    1
    53    35    61    1
    54    36    37    1
    55    36    60    1
    56    37    38    1
    57    38    39    1
    58    39    40    1
    59    40    41    1
    60    41    42    1
    61    45   100    1
    62    47   101    1
    63    47   102    1
    64    47   103    1
    65    48   104    1
    66    49   105    1
    67    49   106    1
    68    49   107    1
    69    50   108    1
    70    51    59    1
    71    52   109    1
    72    52   110    1
    73    52   111    1
    74    53    54    1
    75    54    55    2
    76    54    56    1
    77    56   112    1
    78    56   113    1
    79    56   114    1
    80    57   115    1
    81    57   116    1
    82    57   117    1
    83    58   118    1
    84    58   119    1
    85    58   120    1
    86    59   121    1
    87    59   122    1
    88    59   123    1
    89    60    61    2
    90     1    47    1
    91     1    62    1
    92     2    63    1
    93     3    64    1
    94     4    65    1
    95     5     6    1
    96     7     8    2
    97     9    78    1
    98    15    79    1
    99    18    80    1
   100    18    81    1
   101    19    82    1
   102    19    83    1
   103    20    23    1
   104    21    84    1
   105    21    85    1
   106    22    86    1
   107    22    87    1
   108    27    45    1
   109    28    34    1
   110    32    58    1
   111    33    46    2
   112    36    51    1
   113    36    66    1
   114    37    52    1
   115    37    67    1
   116    38    53    1
   117    38    68    1
   118    42    48    1
   119    42    72    1
   120    43    44    2
   121    60    73    1
   122    61    74    1
   123    39    69    1
   124    39    57    1
   125    40    70    1
   126    40    50    1
   127    41    71    1
   128    41    49    1
