@<TRIPOS>MOLECULE
*****
 123 128 0 0 0
SMALL
GASTEIGER

@<TRIPOS>ATOM
     1 C         5.169731   1.741556   0.490039 C.3        1 UNL1     0.0009
     2 C         6.607651   2.544804   -0.360969 C.2        1 UNL1     -0.0787
     3 C         7.889414   2.444146   -1.026551 C.2        1 UNL1     -0.0649
     4 C         8.768726   3.677319   -1.783156 C.2        1 UNL1     -0.0542
     5 C         9.789228   3.967646   -2.721966 C.2        1 UNL1     0.0115
     6 C         10.916539   3.339788   -3.587002 C.3        1 UNL1     -0.0348
     7 C         9.886792   5.450238   -3.329742 C.2        1 UNL1     0.2441
     8 O         10.711875   6.270988   -2.952736 O.2        1 UNL1     -0.2702
     9 N         9.136933   5.65731   -4.500632 N.am        1 UNL1     -0.2772
     10 C         7.854777   6.04616   -4.187271 C.2        1 UNL1     0.1049
     11 C         7.00754   5.076253   -3.894542 C.2        1 UNL1     0.0801
     12 C         6.558702   7.655946   -2.777977 C.ar        1 UNL1     0.0753
     13 C         5.797953   6.529542   -2.329554 C.ar        1 UNL1     0.0305
     14 C         5.912979   5.223115   -2.973811 C.2        1 UNL1     0.0924
     15 N         7.128198   3.746958   -4.052482 N.pl3        1 UNL1     -0.3170
     16 C         5.857437   3.149941   -3.737852 C.3        1 UNL1     0.1275
     17 N         5.222408   4.10696   -2.758783 N.2        1 UNL1     -0.2557
     18 C         5.004736   3.209188   -5.001613 C.3        1 UNL1     0.0016
     19 C         5.758655   2.523008   -6.129599 C.3        1 UNL1     0.0026
     20 N         6.026737   1.144839   -5.742542 N.3        1 UNL1     -0.3018
     21 C         6.789798   0.984381   -4.503042 C.3        1 UNL1     0.0026
     22 C         6.012025   1.677018   -3.382677 C.3        1 UNL1     0.0016
     23 C         6.47008   0.323689   -6.851506 C.3        1 UNL1     0.0012
     24 C         5.314312   0.075081   -7.833418 C.3        1 UNL1     -0.0339
     25 C         5.391386   1.020339   -9.043626 C.3        1 UNL1     -0.0615
     26 C         5.299484   -1.381883   -8.262156 C.3        1 UNL1     -0.0615
     27 C         6.355895   8.924406   -2.239463 C.ar        1 UNL1     0.1347
     28 C         5.397194   9.196202   -1.27974 C.ar        1 UNL1     0.0342
     29 C         4.693931   8.063191   -0.818362 C.ar        1 UNL1     0.1435
     30 C         4.911497   6.780404   -1.322688 C.ar        1 UNL1     0.0774
     31 O         3.653071   8.179036   0.034982 O.3        1 UNL1     -0.4436
     32 C         2.929573   6.947165   -0.106146 C.3        1 UNL1     0.3143
     33 C         3.941421   5.952099   -0.637393 C.2        1 UNL1     0.2504
     34 C         4.952361   10.563347   -0.840264 C.3        1 UNL1     -0.0327
     35 O         2.568235   6.512138   1.210455 O.2        1 UNL1     -0.4528
     36 C         -0.677655   4.584417   0.815257 C.3        1 UNL1     0.0854
     37 C         -0.984793   3.32351   -0.081015 C.3        1 UNL1     0.0236
     38 C         -1.587248   2.064041   0.707991 C.3        1 UNL1     0.1131
     39 C         -0.862329   1.533161   2.009885 C.3        1 UNL1     0.0200
     40 C         0.798644   1.385189   2.051246 C.3        1 UNL1     0.0661
     41 C         1.756918   0.613924   0.88314 C.3        1 UNL1     0.0091
     42 C         3.465062   0.973459   0.318889 C.3        1 UNL1     0.0661
     43 C         7.508478   7.445862   -3.898713 C.2        1 UNL1     0.2131
     44 O         7.909719   8.342721   -4.618009 O.2        1 UNL1     -0.2851
     45 O         7.169713   9.957909   -2.698821 O.3        1 UNL1     -0.5056
     46 O         3.95562   4.748657   -0.505567 O.2        1 UNL1     -0.2836
     47 C         5.565403   1.312745   1.928631 C.3        1 UNL1     -0.0566
     48 O         3.91153   -0.438238   0.401922 O.3        1 UNL1     -0.3909
     49 C         0.922432   0.381489   -0.356659 C.3        1 UNL1     -0.0577
     50 O         1.400634   2.602503   2.443011 O.3        1 UNL1     -0.3910
     51 O         -0.802075   4.396142   2.20684 O.3        1 UNL1     -0.3753
     52 C         0.059464   3.160483   -1.233359 C.3        1 UNL1     -0.0564
     53 O         -2.19136   1.025166   -0.190961 O.3        1 UNL1     -0.4608
     54 C         -2.415232   -0.284302   0.145346 C.2        1 UNL1     0.3042
     55 O         -1.844025   -1.278291   -0.301362 O.2        1 UNL1     -0.2512
     56 C         -3.445151   -0.460386   1.224686 C.3        1 UNL1     0.0332
     57 C         -1.582407   2.204327   3.270519 C.3        1 UNL1     -0.0567
     58 C         1.85478   7.192901   -1.190565 C.3        1 UNL1     0.0210
     59 C         -1.113547   5.576259   2.945876 C.3        1 UNL1     0.0372
     60 C         0.652281   5.211325   0.584136 C.2        1 UNL1     -0.0208
     61 C         1.565832   5.645965   1.453191 C.2        1 UNL1     0.0882
     62 H         4.69527   2.72651   0.576426 H        1 UNL1     0.0365
     63 H         6.342965   3.59909   -0.256599 H        1 UNL1     0.0576
     64 H         8.345639   1.476425   -1.246734 H        1 UNL1     0.0615
     65 H         8.282992   4.593743   -1.437159 H        1 UNL1     0.0622
     66 H         -1.421186   5.331778   0.504353 H        1 UNL1     0.0645
     67 H         -1.849861   3.633623   -0.692608 H        1 UNL1     0.0362
     68 H         -2.533679   2.502633   1.059313 H        1 UNL1     0.0741
     69 H         -1.19536   0.522729   2.206165 H        1 UNL1     0.0359
     70 H         0.909412   0.725469   2.93304 H        1 UNL1     0.0600
     71 H         1.79897   -0.406929   1.310982 H        1 UNL1     0.0348
     72 H         3.359877   1.462683   1.298129 H        1 UNL1     0.0602
     73 H         0.7705   5.407486   -0.452586 H        1 UNL1     0.0628
     74 H         1.547942   5.43627   2.523213 H        1 UNL1     0.1022
     75 H         10.940756   2.231197   -3.454814 H        1 UNL1     0.0279
     76 H         10.816534   3.445042   -4.664958 H        1 UNL1     0.0279
     77 H         11.922814   3.621109   -3.243536 H        1 UNL1     0.0279
     78 H         9.073654   4.786991   -5.024673 H        1 UNL1     0.1553
     79 H         7.792849   3.317434   -4.669476 H        1 UNL1     0.1484
     80 H         4.042721   2.719856   -4.807073 H        1 UNL1     0.0317
     81 H         4.779677   4.246037   -5.273538 H        1 UNL1     0.0317
     82 H         6.690114   3.052706   -6.378027 H        1 UNL1     0.0428
     83 H         5.13361   2.578292   -7.021402 H        1 UNL1     0.0428
     84 H         6.908559   -0.058475   -4.192947 H        1 UNL1     0.0428
     85 H         7.820439   1.35079   -4.607155 H        1 UNL1     0.0428
     86 H         6.52805   1.426691   -2.474359 H        1 UNL1     0.0317
     87 H         5.031867   1.200949   -3.257193 H        1 UNL1     0.0317
     88 H         7.266962   0.863835   -7.379252 H        1 UNL1     0.0429
     89 H         6.901259   -0.622414   -6.499731 H        1 UNL1     0.0429
     90 H         4.36186   0.245209   -7.317564 H        1 UNL1     0.0308
     91 H         6.346271   0.918196   -9.5679 H        1 UNL1     0.0233
     92 H         4.575512   0.820726   -9.742277 H        1 UNL1     0.0233
     93 H         5.297197   2.07468   -8.756695 H        1 UNL1     0.0233
     94 H         4.607213   -1.522208   -9.099357 H        1 UNL1     0.0233
     95 H         6.296561   -1.683585   -8.594987 H        1 UNL1     0.0233
     96 H         4.987955   -2.0358   -7.442821 H        1 UNL1     0.0233
     97 H         4.152636   10.515541   -0.107198 H        1 UNL1     0.0280
     98 H         5.763518   11.129126   -0.363635 H        1 UNL1     0.0280
     99 H         4.58836   11.131026   -1.712238 H        1 UNL1     0.0280
     100 H         6.70382   10.709451   -3.020925 H        1 UNL1     0.2922
     101 H         4.698807   0.892261   2.438397 H        1 UNL1     0.0236
     102 H         6.028454   2.114534   2.502827 H        1 UNL1     0.0236
     103 H         6.311269   0.500418   1.928249 H        1 UNL1     0.0236
     104 H         4.32547   -0.565638   1.277932 H        1 UNL1     0.2098
     105 H         0.711134   1.280125   -0.930783 H        1 UNL1     0.0234
     106 H         1.290667   -0.407664   -1.012073 H        1 UNL1     0.0234
     107 H         0.0   -0.0   0.0 H        1 UNL1     0.0234
     108 H         1.218098   3.255737   1.740349 H        1 UNL1     0.2098
     109 H         1.085587   3.058214   -0.853459 H        1 UNL1     0.0234
     110 H         -0.167535   2.325508   -1.904948 H        1 UNL1     0.0234
     111 H         0.073187   4.03746   -1.894169 H        1 UNL1     0.0234
     112 H         -3.560309   -1.522921   1.459431 H        1 UNL1     0.0342
     113 H         -3.204046   0.11328   2.118342 H        1 UNL1     0.0342
     114 H         -4.408003   -0.093466   0.843306 H        1 UNL1     0.0342
     115 H         -2.652399   1.957672   3.308816 H        1 UNL1     0.0234
     116 H         -1.146389   1.924777   4.231658 H        1 UNL1     0.0234
     117 H         -1.61937   3.306196   3.220907 H        1 UNL1     0.0234
     118 H         0.953794   7.680102   -0.778418 H        1 UNL1     0.0309
     119 H         2.224617   7.780881   -2.036557 H        1 UNL1     0.0309
     120 H         1.465944   6.261174   -1.615768 H        1 UNL1     0.0309
     121 H         -0.274488   6.263228   2.839057 H        1 UNL1     0.0524
     122 H         -2.011679   6.086675   2.560036 H        1 UNL1     0.0524
     123 H         -1.268457   5.333796   3.993401 H        1 UNL1     0.0524
@<TRIPOS>BOND
     1     1     2    1
     2     1    42    1
     3     2     3    2
     4     3     4    1
     5     4     5    2
     6     5     7    1
     7     6    75    1
     8     6    76    1
     9     6    77    1
    10     7     9   am
    11     9    10    1
    12    10    11    2
    13    10    43    1
    14    11    14    1
    15    11    15    1
    16    12    13   ar
    17    12    27   ar
    18    12    43    1
    19    13    14    1
    20    13    30   ar
    21    14    17    2
    22    15    16    1
    23    16    17    1
    24    16    18    1
    25    16    22    1
    26    18    19    1
    27    19    20    1
    28    20    21    1
    29    21    22    1
    30    23    24    1
    31    23    88    1
    32    23    89    1
    33    24    25    1
    34    24    26    1
    35    24    90    1
    36    25    91    1
    37    25    92    1
    38    25    93    1
    39    26    94    1
    40    26    95    1
    41    26    96    1
    42    27    28   ar
    43    28    29   ar
    44    29    30   ar
    45    29    31    1
    46    30    33    1
    47    31    32    1
    48    32    33    1
    49    32    35    1
    50    34    97    1
    51    34    98    1
    52    34    99    1
    53    35    61    1
    54    36    37    1
    55    36    60    1
    56    37    38    1
    57    38    39    1
    58    39    40    1
    59    40    41    1
    60    41    42    1
    61    45   100    1
    62    47   101    1
    63    47   102    1
    64    47   103    1
    65    48   104    1
    66    49   105    1
    67    49   106    1
    68    49   107    1
    69    50   108    1
    70    51    59    1
    71    52   109    1
    72    52   110    1
    73    52   111    1
    74    53    54    1
    75    54    55    2
    76    54    56    1
    77    56   112    1
    78    56   113    1
    79    56   114    1
    80    57   115    1
    81    57   116    1
    82    57   117    1
    83    58   118    1
    84    58   119    1
    85    58   120    1
    86    59   121    1
    87    59   122    1
    88    59   123    1
    89    60    61    2
    90     1    47    1
    91     1    62    1
    92     2    63    1
    93     3    64    1
    94     4    65    1
    95     5     6    1
    96     7     8    2
    97     9    78    1
    98    15    79    1
    99    18    80    1
   100    18    81    1
   101    19    82    1
   102    19    83    1
   103    20    23    1
   104    21    84    1
   105    21    85    1
   106    22    86    1
   107    22    87    1
   108    27    45    1
   109    28    34    1
   110    32    58    1
   111    33    46    2
   112    36    51    1
   113    36    66    1
   114    37    52    1
   115    37    67    1
   116    38    53    1
   117    38    68    1
   118    42    48    1
   119    42    72    1
   120    43    44    2
   121    60    73    1
   122    61    74    1
   123    39    69    1
   124    39    57    1
   125    40    70    1
   126    40    50    1
   127    41    71    1
   128    41    49    1
