@<TRIPOS>MOLECULE
*****
 123 128 0 0 0
SMALL
GASTEIGER

@<TRIPOS>ATOM
     1 C         4.384636   2.600585   -2.005926 C.3        1 UNL1     0.0009
     2 C         5.483171   2.843578   -3.47943 C.2        1 UNL1     -0.0787
     3 C         6.723034   2.579901   -4.178901 C.2        1 UNL1     -0.0649
     4 C         7.156346   3.056973   -5.744468 C.2        1 UNL1     -0.0542
     5 C         8.021221   2.804153   -6.837698 C.2        1 UNL1     0.0115
     6 C         9.280043   2.012535   -7.287175 C.3        1 UNL1     -0.0348
     7 C         7.635737   3.38502   -8.283722 C.2        1 UNL1     0.2441
     8 O         8.161222   4.38053   -8.762626 O.2        1 UNL1     -0.2702
     9 N         6.8461   2.528933   -9.070957 N.am        1 UNL1     -0.2772
     10 C         5.510375   2.734888   -8.812613 C.2        1 UNL1     0.1049
     11 C         5.018675   2.111034   -7.757502 C.2        1 UNL1     0.0801
     12 C         3.78541   4.534041   -8.600761 C.ar        1 UNL1     0.0753
     13 C         3.42717   3.934879   -7.351251 C.ar        1 UNL1     0.0305
     14 C         3.944415   2.627509   -6.953391 C.2        1 UNL1     0.0924
     15 N         5.553885   1.135396   -7.003706 N.pl3        1 UNL1     -0.3170
     16 C         4.542364   0.685095   -6.084843 C.3        1 UNL1     0.1275
     17 N         3.64688   1.884404   -5.891225 N.2        1 UNL1     -0.2557
     18 C         3.701194   -0.358159   -6.814059 C.3        1 UNL1     0.0016
     19 C         4.62166   -1.456461   -7.322061 C.3        1 UNL1     0.0026
     20 N         5.318175   -2.045403   -6.186701 N.3        1 UNL1     -0.3018
     21 C         6.106266   -1.106489   -5.385626 C.3        1 UNL1     0.0026
     22 C         5.161049   -0.014441   -4.881752 C.3        1 UNL1     0.0016
     23 C         5.987307   -3.287592   -6.51817 C.3        1 UNL1     0.0012
     24 C         4.959775   -4.401891   -6.771691 C.3        1 UNL1     -0.0339
     25 C         5.487101   -5.769437   -6.307146 C.3        1 UNL1     -0.0615
     26 C         3.640353   -4.055359   -6.103992 C.3        1 UNL1     -0.0615
     27 C         3.195849   5.721848   -9.026966 C.ar        1 UNL1     0.1347
     28 C         2.211107   6.378996   -8.311082 C.ar        1 UNL1     0.0342
     29 C         1.909611   5.797046   -7.061443 C.ar        1 UNL1     0.1435
     30 C         2.518096   4.627154   -6.605024 C.ar        1 UNL1     0.0774
     31 O         0.89538   6.256454   -6.296403 O.3        1 UNL1     -0.4436
     32 C         0.599489   5.175552   -5.3992 C.3        1 UNL1     0.3143
     33 C         1.869249   4.35065   -5.340386 C.2        1 UNL1     0.2504
     34 C         1.359628   7.51011   -8.816715 C.3        1 UNL1     -0.0327
     35 O         0.409704   5.74263   -4.097026 O.2        1 UNL1     -0.4528
     36 C         -2.059185   3.470456   -2.322229 C.3        1 UNL1     0.0854
     37 C         -1.959425   1.923119   -2.03358 C.3        1 UNL1     0.0236
     38 C         -2.121542   1.511314   -0.492192 C.3        1 UNL1     0.1131
     39 C         -1.251175   2.238514   0.610491 C.3        1 UNL1     0.0200
     40 C         0.371031   2.527818   0.351285 C.3        1 UNL1     0.0661
     41 C         1.511843   1.388215   -0.175462 C.3        1 UNL1     0.0091
     42 C         3.010775   1.596628   -1.212367 C.3        1 UNL1     0.0661
     43 C         4.7403   3.80176   -9.469214 C.2        1 UNL1     0.2131
     44 O         4.827687   3.977042   -10.671036 O.2        1 UNL1     -0.2851
     45 O         3.633813   6.262543   -10.234143 O.3        1 UNL1     -0.5056
     46 O         2.266714   3.642263   -4.442576 O.2        1 UNL1     -0.2836
     47 C         4.911914   3.42214   -0.79886 C.3        1 UNL1     -0.0566
     48 O         3.883721   0.80761   -0.309854 O.3        1 UNL1     -0.3909
     49 C         0.780926   0.170779   -0.696138 C.3        1 UNL1     -0.0577
     50 O         0.559112   3.750949   -0.331576 O.3        1 UNL1     -0.3910
     51 O         -2.101967   4.307141   -1.188404 O.3        1 UNL1     -0.3753
     52 C         -0.930268   1.22026   -2.977919 C.3        1 UNL1     -0.0564
     53 O         -2.373944   0.046458   -0.285268 O.3        1 UNL1     -0.4608
     54 C         -1.877596   -0.708093   0.745373 C.2        1 UNL1     0.3042
     55 O         -0.935484   -1.498484   0.706061 O.2        1 UNL1     -0.2512
     56 C         -2.564567   -0.459333   2.057967 C.3        1 UNL1     0.0332
     57 C         -2.133324   3.428407   1.213935 C.3        1 UNL1     -0.0567
     58 C         -0.509545   4.336614   -6.075777 C.3        1 UNL1     0.0210
     59 C         -3.37222   4.904111   -0.931594 C.3        1 UNL1     0.0372
     60 C         -1.000144   4.012926   -3.216275 C.2        1 UNL1     -0.0208
     61 C         -0.262628   5.119105   -3.11053 C.2        1 UNL1     0.0882
     62 H         3.622669   3.218505   -2.496122 H        1 UNL1     0.0365
     63 H         4.898244   3.566001   -4.052523 H        1 UNL1     0.0576
     64 H         7.460761   1.87443   -3.790084 H        1 UNL1     0.0615
     65 H         6.408336   3.81121   -6.003485 H        1 UNL1     0.0622
     66 H         -3.005097   3.588758   -2.869313 H        1 UNL1     0.0645
     67 H         -2.884883   1.508791   -2.469952 H        1 UNL1     0.0362
     68 H         -3.154373   1.850086   -0.318937 H        1 UNL1     0.0741
     69 H         -1.243552   1.630071   1.505 H        1 UNL1     0.0359
     70 H         0.69547   2.737383   1.388532 H        1 UNL1     0.0600
     71 H         1.880933   1.018506   0.80129 H        1 UNL1     0.0348
     72 H         2.766322   2.597556   -0.828046 H        1 UNL1     0.0602
     73 H         -0.961838   3.432515   -4.104478 H        1 UNL1     0.0628
     74 H         -0.201146   5.735818   -2.213243 H        1 UNL1     0.1022
     75 H         10.098125   2.116613   -6.534217 H        1 UNL1     0.0279
     76 H         9.171393   0.933261   -7.367373 H        1 UNL1     0.0279
     77 H         9.754019   2.440224   -8.182792 H        1 UNL1     0.0279
     78 H         7.056993   1.560311   -8.839934 H        1 UNL1     0.1553
     79 H         6.31376   0.552889   -7.304053 H        1 UNL1     0.1484
     80 H         2.946831   -0.755094   -6.124026 H        1 UNL1     0.0317
     81 H         3.155234   0.093579   -7.64923 H        1 UNL1     0.0317
     82 H         5.333628   -1.077441   -8.069963 H        1 UNL1     0.0428
     83 H         4.001679   -2.18868   -7.84026 H        1 UNL1     0.0428
     84 H         6.553778   -1.558074   -4.494775 H        1 UNL1     0.0428
     85 H         6.965762   -0.71267   -5.945528 H        1 UNL1     0.0428
     86 H         5.739854   0.575467   -4.19547 H        1 UNL1     0.0317
     87 H         4.384509   -0.455526   -4.244942 H        1 UNL1     0.0317
     88 H         6.565291   -3.12928   -7.438043 H        1 UNL1     0.0429
     89 H         6.700716   -3.577297   -5.735934 H        1 UNL1     0.0429
     90 H         4.746667   -4.456362   -7.845856 H        1 UNL1     0.0308
     91 H         5.937831   -5.704855   -5.312272 H        1 UNL1     0.0233
     92 H         4.682188   -6.507945   -6.288952 H        1 UNL1     0.0233
     93 H         6.255362   -6.17096   -6.979 H        1 UNL1     0.0233
     94 H         3.722211   -4.179332   -5.018743 H        1 UNL1     0.0233
     95 H         3.382277   -3.011943   -6.305591 H        1 UNL1     0.0233
     96 H         2.830322   -4.695389   -6.464797 H        1 UNL1     0.0233
     97 H         0.300878   7.27175   -8.778463 H        1 UNL1     0.0280
     98 H         1.484278   8.421702   -8.217785 H        1 UNL1     0.0280
     99 H         1.625973   7.73349   -9.862782 H        1 UNL1     0.0280
     100 H         4.568967   6.325831   -10.318427 H        1 UNL1     0.2922
     101 H         4.110427   3.567608   -0.074904 H        1 UNL1     0.0236
     102 H         5.375116   4.364001   -1.090966 H        1 UNL1     0.0236
     103 H         5.697127   2.883437   -0.242592 H        1 UNL1     0.0236
     104 H         3.315704   0.417244   0.382924 H        1 UNL1     0.2098
     105 H         0.329836   0.302899   -1.67638 H        1 UNL1     0.0234
     106 H         1.357676   -0.753585   -0.66718 H        1 UNL1     0.0234
     107 H         0.0   -0.0   0.0 H        1 UNL1     0.0234
     108 H         1.4487   3.724871   -0.733722 H        1 UNL1     0.2098
     109 H         -1.298436   1.143098   -4.010494 H        1 UNL1     0.0234
     110 H         0.054274   1.700272   -2.97486 H        1 UNL1     0.0234
     111 H         -0.725139   0.190044   -2.657729 H        1 UNL1     0.0234
     112 H         -2.76412   -1.411004   2.559812 H        1 UNL1     0.0342
     113 H         -1.991839   0.208316   2.699895 H        1 UNL1     0.0342
     114 H         -3.530517   0.022737   1.853725 H        1 UNL1     0.0342
     115 H         -1.90996   3.60478   2.275155 H        1 UNL1     0.0234
     116 H         -2.013632   4.379203   0.69076 H        1 UNL1     0.0234
     117 H         -3.211611   3.197663   1.258616 H        1 UNL1     0.0234
     118 H         -1.476279   4.426368   -5.550062 H        1 UNL1     0.0309
     119 H         -0.651986   4.585003   -7.132288 H        1 UNL1     0.0309
     120 H         -0.302721   3.261343   -6.042291 H        1 UNL1     0.0309
     121 H         -3.419778   5.834248   -1.497226 H        1 UNL1     0.0524
     122 H         -4.208655   4.268525   -1.26692 H        1 UNL1     0.0524
     123 H         -3.485464   5.104783   0.130009 H        1 UNL1     0.0524
@<TRIPOS>BOND
     1     1     2    1
     2     1    42    1
     3     2     3    2
     4     3     4    1
     5     4     5    2
     6     5     7    1
     7     6    75    1
     8     6    76    1
     9     6    77    1
    10     7     9   am
    11     9    10    1
    12    10    11    2
    13    10    43    1
    14    11    14    1
    15    11    15    1
    16    12    13   ar
    17    12    27   ar
    18    12    43    1
    19    13    14    1
    20    13    30   ar
    21    14    17    2
    22    15    16    1
    23    16    17    1
    24    16    18    1
    25    16    22    1
    26    18    19    1
    27    19    20    1
    28    20    21    1
    29    21    22    1
    30    23    24    1
    31    23    88    1
    32    23    89    1
    33    24    25    1
    34    24    26    1
    35    24    90    1
    36    25    91    1
    37    25    92    1
    38    25    93    1
    39    26    94    1
    40    26    95    1
    41    26    96    1
    42    27    28   ar
    43    28    29   ar
    44    29    30   ar
    45    29    31    1
    46    30    33    1
    47    31    32    1
    48    32    33    1
    49    32    35    1
    50    34    97    1
    51    34    98    1
    52    34    99    1
    53    35    61    1
    54    36    37    1
    55    36    60    1
    56    37    38    1
    57    38    39    1
    58    39    40    1
    59    40    41    1
    60    41    42    1
    61    45   100    1
    62    47   101    1
    63    47   102    1
    64    47   103    1
    65    48   104    1
    66    49   105    1
    67    49   106    1
    68    49   107    1
    69    50   108    1
    70    51    59    1
    71    52   109    1
    72    52   110    1
    73    52   111    1
    74    53    54    1
    75    54    55    2
    76    54    56    1
    77    56   112    1
    78    56   113    1
    79    56   114    1
    80    57   115    1
    81    57   116    1
    82    57   117    1
    83    58   118    1
    84    58   119    1
    85    58   120    1
    86    59   121    1
    87    59   122    1
    88    59   123    1
    89    60    61    2
    90     1    47    1
    91     1    62    1
    92     2    63    1
    93     3    64    1
    94     4    65    1
    95     5     6    1
    96     7     8    2
    97     9    78    1
    98    15    79    1
    99    18    80    1
   100    18    81    1
   101    19    82    1
   102    19    83    1
   103    20    23    1
   104    21    84    1
   105    21    85    1
   106    22    86    1
   107    22    87    1
   108    27    45    1
   109    28    34    1
   110    32    58    1
   111    33    46    2
   112    36    51    1
   113    36    66    1
   114    37    52    1
   115    37    67    1
   116    38    53    1
   117    38    68    1
   118    42    48    1
   119    42    72    1
   120    43    44    2
   121    60    73    1
   122    61    74    1
   123    39    69    1
   124    39    57    1
   125    40    70    1
   126    40    50    1
   127    41    71    1
   128    41    49    1
