@<TRIPOS>MOLECULE
*****
 123 128 0 0 0
SMALL
GASTEIGER

@<TRIPOS>ATOM
     1 C         5.126669   1.881561   0.434447 C.3        1 UNL1     0.0009
     2 C         6.515762   2.761258   -0.422052 C.2        1 UNL1     -0.0787
     3 C         7.787121   2.727273   -1.113816 C.2        1 UNL1     -0.0649
     4 C         8.603503   4.012368   -1.854362 C.2        1 UNL1     -0.0542
     5 C         9.593496   4.365712   -2.804173 C.2        1 UNL1     0.0115
     6 C         10.72683   3.804137   -3.70612 C.3        1 UNL1     -0.0348
     7 C         9.622221   5.865857   -3.374898 C.2        1 UNL1     0.2441
     8 O         10.422492   6.708222   -2.992127 O.2        1 UNL1     -0.2702
     9 N         8.842126   6.073192   -4.525818 N.am        1 UNL1     -0.2772
     10 C         7.552414   6.403946   -4.178591 C.2        1 UNL1     0.1049
     11 C         6.748877   5.394801   -3.895436 C.2        1 UNL1     0.0801
     12 C         6.223533   7.926092   -2.703979 C.ar        1 UNL1     0.0753
     13 C         5.515459   6.76004   -2.270892 C.ar        1 UNL1     0.0305
     14 C         5.667787   5.475759   -2.950943 C.2        1 UNL1     0.0924
     15 N         6.917259   4.075606   -4.090117 N.pl3        1 UNL1     -0.3170
     16 C         5.676734   3.42196   -3.767474 C.3        1 UNL1     0.1275
     17 N         5.02485   4.328567   -2.752173 N.2        1 UNL1     -0.2557
     18 C         4.797733   3.479984   -5.013144 C.3        1 UNL1     0.0016
     19 C         5.555092   2.852303   -6.172459 C.3        1 UNL1     0.0026
     20 N         5.883338   1.476237   -5.826443 N.3        1 UNL1     -0.3018
     21 C         6.676184   1.314244   -4.605983 C.3        1 UNL1     0.0026
     22 C         5.894594   1.947643   -3.453672 C.3        1 UNL1     0.0016
     23 C         6.335955   0.701197   -6.964465 C.3        1 UNL1     0.0012
     24 C         5.171501   0.432811   -7.930783 C.3        1 UNL1     -0.0339
     25 C         5.483609   0.949699   -9.34481 C.3        1 UNL1     -0.0615
     26 C         4.832217   -1.047594   -7.938994 C.3        1 UNL1     -0.0615
     27 C         5.982885   9.171712   -2.128968 C.ar        1 UNL1     0.1347
     28 C         5.033506   9.381758   -1.144787 C.ar        1 UNL1     0.0342
     29 C         4.383373   8.211009   -0.699997 C.ar        1 UNL1     0.1435
     30 C         4.639987   6.950787   -1.241485 C.ar        1 UNL1     0.0774
     31 O         3.355799   8.264771   0.175336 O.3        1 UNL1     -0.4436
     32 C         2.677405   7.009708   0.015735 C.3        1 UNL1     0.3143
     33 C         3.716011   6.068405   -0.55999 C.2        1 UNL1     0.2504
     34 C         4.54533   10.719066   -0.661684 C.3        1 UNL1     -0.0327
     35 O         2.35893   6.527855   1.327087 O.2        1 UNL1     -0.4528
     36 C         -0.817843   4.486215   0.942493 C.3        1 UNL1     0.0854
     37 C         -1.093981   3.237389   0.019616 C.3        1 UNL1     0.0236
     38 C         -1.63212   1.935952   0.786698 C.3        1 UNL1     0.1131
     39 C         -0.861961   1.400878   2.060598 C.3        1 UNL1     0.0200
     40 C         0.803955   1.316483   2.067111 C.3        1 UNL1     0.0661
     41 C         1.767952   0.612753   0.861672 C.3        1 UNL1     0.0091
     42 C         3.449653   1.052454   0.275202 C.3        1 UNL1     0.0661
     43 C         7.158467   7.781414   -3.847319 C.2        1 UNL1     0.2131
     44 O         7.510842   8.711059   -4.550404 O.2        1 UNL1     -0.2851
     45 O         6.747323   10.247298   -2.57639 O.3        1 UNL1     -0.5056
     46 O         3.778901   4.863474   -0.459796 O.2        1 UNL1     -0.2836
     47 C         5.56666   1.432215   1.85377 C.3        1 UNL1     -0.0566
     48 O         3.951432   -0.342499   0.313151 O.3        1 UNL1     -0.3909
     49 C         0.918797   0.37951   -0.367973 C.3        1 UNL1     -0.0577
     50 O         1.366434   2.545954   2.479107 O.3        1 UNL1     -0.3910
     51 O         -0.907601   4.25815   2.330788 O.3        1 UNL1     -0.3753
     52 C         -0.067078   3.144183   -1.155854 C.3        1 UNL1     -0.0564
     53 O         -2.213518   0.897462   -0.127545 O.3        1 UNL1     -0.4608
     54 C         -2.361663   -0.431712   0.17125 C.2        1 UNL1     0.3042
     55 O         -1.65903   -1.366198   -0.212002 O.2        1 UNL1     -0.2512
     56 C         -3.491295   -0.712358   1.120926 C.3        1 UNL1     0.0332
     57 C         -1.582331   2.011523   3.351471 C.3        1 UNL1     -0.0567
     58 C         1.572895   7.24087   -1.041691 C.3        1 UNL1     0.0210
     59 C         -1.249491   5.406237   3.105947 C.3        1 UNL1     0.0372
     60 C         0.482298   5.169906   0.702992 C.2        1 UNL1     -0.0208
     61 C         1.395416   5.617574   1.565867 C.2        1 UNL1     0.0882
     62 H         4.616602   2.844862   0.555257 H        1 UNL1     0.0365
     63 H         6.212972   3.801503   -0.285379 H        1 UNL1     0.0576
     64 H         8.275681   1.783859   -1.367564 H        1 UNL1     0.0615
     65 H         8.089899   4.900213   -1.475648 H        1 UNL1     0.0622
     66 H         -1.595428   5.211773   0.665054 H        1 UNL1     0.0645
     67 H         -1.982142   3.52905   -0.567464 H        1 UNL1     0.0362
     68 H         -2.587579   2.328464   1.166899 H        1 UNL1     0.0741
     69 H         -1.152108   0.373645   2.23671 H        1 UNL1     0.0359
     70 H         0.957218   0.639488   2.929229 H        1 UNL1     0.0600
     71 H         1.857486   -0.416184   1.26196 H        1 UNL1     0.0348
     72 H         3.345051   1.512327   1.268626 H        1 UNL1     0.0602
     73 H         0.57253   5.396641   -0.330303 H        1 UNL1     0.0628
     74 H         1.406593   5.380372   2.630221 H        1 UNL1     0.1022
     75 H         10.762924   2.689847   -3.642179 H        1 UNL1     0.0279
     76 H         10.624979   3.974235   -4.775588 H        1 UNL1     0.0279
     77 H         11.730291   4.074568   -3.346072 H        1 UNL1     0.0279
     78 H         8.801963   5.214593   -5.071045 H        1 UNL1     0.1553
     79 H         7.585635   3.687929   -4.730362 H        1 UNL1     0.1484
     80 H         3.859181   2.948924   -4.813488 H        1 UNL1     0.0317
     81 H         4.52781   4.513857   -5.253766 H        1 UNL1     0.0317
     82 H         6.460511   3.423861   -6.424356 H        1 UNL1     0.0428
     83 H         4.910994   2.905805   -7.05071 H        1 UNL1     0.0428
     84 H         6.840886   0.269281   -4.325385 H        1 UNL1     0.0428
     85 H         7.689784   1.722891   -4.719736 H        1 UNL1     0.0428
     86 H         6.437573   1.694658   -2.561954 H        1 UNL1     0.0317
     87 H         4.936053   1.430873   -3.322354 H        1 UNL1     0.0317
     88 H         7.101036   1.285026   -7.492755 H        1 UNL1     0.0429
     89 H         6.809897   -0.236047   -6.645517 H        1 UNL1     0.0429
     90 H         4.274021   0.943746   -7.562425 H        1 UNL1     0.0308
     91 H         6.489799   0.659105   -9.661417 H        1 UNL1     0.0233
     92 H         4.756559   0.56734   -10.065093 H        1 UNL1     0.0233
     93 H         5.432905   2.043303   -9.410348 H        1 UNL1     0.0233
     94 H         4.305615   -1.309278   -8.86314 H        1 UNL1     0.0233
     95 H         5.749463   -1.641389   -7.893949 H        1 UNL1     0.0233
     96 H         4.196025   -1.31589   -7.09091 H        1 UNL1     0.0233
     97 H         3.713199   10.623671   0.029466 H        1 UNL1     0.0280
     98 H         5.323563   11.272854   -0.120455 H        1 UNL1     0.0280
     99 H         4.212764   11.323194   -1.52164 H        1 UNL1     0.0280
     100 H         6.250332   11.01409   -2.801454 H        1 UNL1     0.2922
     101 H         4.704333   1.056944   2.404424 H        1 UNL1     0.0236
     102 H         6.096995   2.208704   2.404037 H        1 UNL1     0.0236
     103 H         6.268658   0.582359   1.820058 H        1 UNL1     0.0236
     104 H         4.305925   -0.504161   1.209349 H        1 UNL1     0.2098
     105 H         0.702186   1.277505   -0.941118 H        1 UNL1     0.0234
     106 H         1.278235   -0.411285   -1.026286 H        1 UNL1     0.0234
     107 H         0.0   -0.0   0.0 H        1 UNL1     0.0234
     108 H         1.18423   3.198513   1.775731 H        1 UNL1     0.2098
     109 H         0.969474   3.072248   -0.797946 H        1 UNL1     0.0234
     110 H         -0.275061   2.318264   -1.844581 H        1 UNL1     0.0234
     111 H         -0.099951   4.037449   -1.793773 H        1 UNL1     0.0234
     112 H         -3.541265   -1.784619   1.333308 H        1 UNL1     0.0342
     113 H         -3.406094   -0.135459   2.040584 H        1 UNL1     0.0342
     114 H         -4.43113   -0.421805   0.631586 H        1 UNL1     0.0342
     115 H         -2.664608   1.822337   3.343024 H        1 UNL1     0.0234
     116 H         -1.190524   1.634815   4.298375 H        1 UNL1     0.0234
     117 H         -1.559049   3.114281   3.387872 H        1 UNL1     0.0234
     118 H         0.567915   7.291252   -0.587286 H        1 UNL1     0.0309
     119 H         1.737992   8.13833   -1.646266 H        1 UNL1     0.0309
     120 H         1.488426   6.409423   -1.749976 H        1 UNL1     0.0309
     121 H         -0.852335   5.25663   4.109561 H        1 UNL1     0.0524
     122 H         -0.800298   6.330312   2.705511 H        1 UNL1     0.0524
     123 H         -2.328478   5.526418   3.143877 H        1 UNL1     0.0524
@<TRIPOS>BOND
     1     1     2    1
     2     1    42    1
     3     2     3    2
     4     3     4    1
     5     4     5    2
     6     5     7    1
     7     6    75    1
     8     6    76    1
     9     6    77    1
    10     7     9   am
    11     9    10    1
    12    10    11    2
    13    10    43    1
    14    11    14    1
    15    11    15    1
    16    12    13   ar
    17    12    27   ar
    18    12    43    1
    19    13    14    1
    20    13    30   ar
    21    14    17    2
    22    15    16    1
    23    16    17    1
    24    16    18    1
    25    16    22    1
    26    18    19    1
    27    19    20    1
    28    20    21    1
    29    21    22    1
    30    23    24    1
    31    23    88    1
    32    23    89    1
    33    24    25    1
    34    24    26    1
    35    24    90    1
    36    25    91    1
    37    25    92    1
    38    25    93    1
    39    26    94    1
    40    26    95    1
    41    26    96    1
    42    27    28   ar
    43    28    29   ar
    44    29    30   ar
    45    29    31    1
    46    30    33    1
    47    31    32    1
    48    32    33    1
    49    32    35    1
    50    34    97    1
    51    34    98    1
    52    34    99    1
    53    35    61    1
    54    36    37    1
    55    36    60    1
    56    37    38    1
    57    38    39    1
    58    39    40    1
    59    40    41    1
    60    41    42    1
    61    45   100    1
    62    47   101    1
    63    47   102    1
    64    47   103    1
    65    48   104    1
    66    49   105    1
    67    49   106    1
    68    49   107    1
    69    50   108    1
    70    51    59    1
    71    52   109    1
    72    52   110    1
    73    52   111    1
    74    53    54    1
    75    54    55    2
    76    54    56    1
    77    56   112    1
    78    56   113    1
    79    56   114    1
    80    57   115    1
    81    57   116    1
    82    57   117    1
    83    58   118    1
    84    58   119    1
    85    58   120    1
    86    59   121    1
    87    59   122    1
    88    59   123    1
    89    60    61    2
    90     1    47    1
    91     1    62    1
    92     2    63    1
    93     3    64    1
    94     4    65    1
    95     5     6    1
    96     7     8    2
    97     9    78    1
    98    15    79    1
    99    18    80    1
   100    18    81    1
   101    19    82    1
   102    19    83    1
   103    20    23    1
   104    21    84    1
   105    21    85    1
   106    22    86    1
   107    22    87    1
   108    27    45    1
   109    28    34    1
   110    32    58    1
   111    33    46    2
   112    36    51    1
   113    36    66    1
   114    37    52    1
   115    37    67    1
   116    38    53    1
   117    38    68    1
   118    42    48    1
   119    42    72    1
   120    43    44    2
   121    60    73    1
   122    61    74    1
   123    39    69    1
   124    39    57    1
   125    40    70    1
   126    40    50    1
   127    41    71    1
   128    41    49    1
