@<TRIPOS>MOLECULE
*****
 123 128 0 0 0
SMALL
GASTEIGER

@<TRIPOS>ATOM
     1 C         5.026083   2.074876   0.667183 C.3        1 UNL1     0.0009
     2 C         6.411277   3.023082   -0.119696 C.2        1 UNL1     -0.0787
     3 C         7.709119   3.051015   -0.760691 C.2        1 UNL1     -0.0649
     4 C         8.501695   4.379675   -1.448327 C.2        1 UNL1     -0.0542
     5 C         9.513191   4.787836   -2.352406 C.2        1 UNL1     0.0115
     6 C         10.702631   4.286771   -3.216981 C.3        1 UNL1     -0.0348
     7 C         9.504066   6.29738   -2.898466 C.2        1 UNL1     0.2441
     8 O         10.254277   7.16409   -2.47124 O.2        1 UNL1     -0.2702
     9 N         8.762002   6.493184   -4.076241 N.am        1 UNL1     -0.2772
     10 C         7.447439   6.766846   -3.775651 C.2        1 UNL1     0.1049
     11 C         6.67455   5.722122   -3.540245 C.2        1 UNL1     0.0801
     12 C         6.001775   8.210194   -2.331997 C.ar        1 UNL1     0.0753
     13 C         5.324615   7.009942   -1.945398 C.ar        1 UNL1     0.0305
     14 C         5.554886   5.744356   -2.63845 C.2        1 UNL1     0.0924
     15 N         6.903221   4.414083   -3.748266 N.pl3        1 UNL1     -0.3170
     16 C         5.678222   3.706611   -3.485371 C.3        1 UNL1     0.1275
     17 N         4.95119   4.56948   -2.48307 N.2        1 UNL1     -0.2557
     18 C         4.847114   3.75094   -4.76404 C.3        1 UNL1     0.0016
     19 C         5.673912   3.173338   -5.901744 C.3        1 UNL1     0.0026
     20 N         6.043279   1.805651   -5.564062 N.3        1 UNL1     -0.3018
     21 C         6.793527   1.654474   -4.315606 C.3        1 UNL1     0.0026
     22 C         5.942582   2.236949   -3.185779 C.3        1 UNL1     0.0016
     23 C         6.570892   1.068435   -6.694894 C.3        1 UNL1     0.0012
     24 C         5.456922   0.770663   -7.710846 C.3        1 UNL1     -0.0339
     25 C         5.80324   1.323302   -9.103222 C.3        1 UNL1     -0.0615
     26 C         5.177883   -0.721632   -7.755267 C.3        1 UNL1     -0.0615
     27 C         5.688992   9.435443   -1.748001 C.ar        1 UNL1     0.1347
     28 C         4.694098   9.591174   -0.799327 C.ar        1 UNL1     0.0342
     29 C         4.074517   8.388319   -0.398799 C.ar        1 UNL1     0.1435
     30 C         4.402512   7.148545   -0.94889 C.ar        1 UNL1     0.0774
     31 O         3.012087   8.386664   0.435615 O.3        1 UNL1     -0.4436
     32 C         2.391367   7.108676   0.229884 C.3        1 UNL1     0.3143
     33 C         3.48867   6.218978   -0.318364 C.2        1 UNL1     0.2504
     34 C         4.134101   10.899809   -0.315612 C.3        1 UNL1     -0.0327
     35 O         2.041311   6.592523   1.519962 O.2        1 UNL1     -0.4528
     36 C         -1.033477   4.433854   0.977831 C.3        1 UNL1     0.0854
     37 C         -1.222901   3.190881   0.025644 C.3        1 UNL1     0.0236
     38 C         -1.738056   1.856431   0.750628 C.3        1 UNL1     0.1131
     39 C         -0.997588   1.330718   2.045851 C.3        1 UNL1     0.0200
     40 C         0.668835   1.31206   2.117446 C.3        1 UNL1     0.0661
     41 C         1.706805   0.667416   0.940729 C.3        1 UNL1     0.0091
     42 C         3.391212   1.183019   0.428546 C.3        1 UNL1     0.0661
     43 C         6.985866   8.12189   -3.439258 C.2        1 UNL1     0.2131
     44 O         7.327956   9.076476   -4.113408 O.2        1 UNL1     -0.2851
     45 O         6.426619   10.54778   -2.148063 O.3        1 UNL1     -0.5056
     46 O         3.595871   5.015947   -0.234229 O.2        1 UNL1     -0.2836
     47 C         5.427763   1.619318   2.095854 C.3        1 UNL1     -0.0566
     48 O         3.946674   -0.191479   0.465067 O.3        1 UNL1     -0.3909
     49 C         0.916552   0.421654   -0.325208 C.3        1 UNL1     -0.0577
     50 O         1.164954   2.555637   2.570331 O.3        1 UNL1     -0.3910
     51 O         -1.168374   4.178983   2.357785 O.3        1 UNL1     -0.3753
     52 C         -0.147791   3.158176   -1.109265 C.3        1 UNL1     -0.0564
     53 O         -2.241035   0.811403   -0.201871 O.3        1 UNL1     -0.4608
     54 C         -2.34734   -0.527445   0.07037 C.2        1 UNL1     0.3042
     55 O         -1.593299   -1.42685   -0.298863 O.2        1 UNL1     -0.2512
     56 C         -3.501167   -0.868485   0.969864 C.3        1 UNL1     0.0332
     57 C         -1.791929   1.890535   3.316206 C.3        1 UNL1     -0.0567
     58 C         1.320778   7.313898   -0.867045 C.3        1 UNL1     0.0210
     59 C         -1.586173   5.299408   3.136218 C.3        1 UNL1     0.0372
     60 C         0.246579   5.172291   0.800836 C.2        1 UNL1     -0.0208
     61 C         1.10647   5.641007   1.706174 C.2        1 UNL1     0.0882
     62 H         4.473438   3.015108   0.782327 H        1 UNL1     0.0365
     63 H         6.061875   4.048102   0.020736 H        1 UNL1     0.0576
     64 H         8.244704   2.13205   -1.009204 H        1 UNL1     0.0615
     65 H         7.938435   5.240022   -1.076811 H        1 UNL1     0.0622
     66 H         -1.828069   5.132735   0.680784 H        1 UNL1     0.0645
     67 H         -2.098348   3.457135   -0.59182 H        1 UNL1     0.0362
     68 H         -2.722664   2.204432   1.098429 H        1 UNL1     0.0741
     69 H         -1.252974   0.290001   2.194491 H        1 UNL1     0.0359
     70 H         0.815216   0.627164   2.974505 H        1 UNL1     0.0600
     71 H         1.821783   -0.363804   1.328444 H        1 UNL1     0.0348
     72 H         3.229378   1.621542   1.423947 H        1 UNL1     0.0602
     73 H         0.368083   5.419849   -0.224444 H        1 UNL1     0.0628
     74 H         1.085418   5.386469   2.766365 H        1 UNL1     0.1022
     75 H         10.780863   3.173852   -3.168745 H        1 UNL1     0.0279
     76 H         10.636045   4.470772   -4.286925 H        1 UNL1     0.0279
     77 H         11.679547   4.590481   -2.81313 H        1 UNL1     0.0279
     78 H         8.777723   5.643011   -4.635736 H        1 UNL1     0.1553
     79 H         7.611198   4.063976   -4.367238 H        1 UNL1     0.1484
     80 H         3.923516   3.179941   -4.610107 H        1 UNL1     0.0317
     81 H         4.545574   4.777271   -4.999347 H        1 UNL1     0.0317
     82 H         6.564852   3.784372   -6.108569 H        1 UNL1     0.0428
     83 H         5.063113   3.216211   -6.804039 H        1 UNL1     0.0428
     84 H         6.988889   0.612232   -4.044723 H        1 UNL1     0.0428
     85 H         7.793597   2.104682   -4.382601 H        1 UNL1     0.0428
     86 H         6.459895   1.990558   -2.277117 H        1 UNL1     0.0317
     87 H         5.001133   1.680594   -3.100698 H        1 UNL1     0.0317
     88 H         7.332058   1.690862   -7.183264 H        1 UNL1     0.0429
     89 H         7.069182   0.145374   -6.371722 H        1 UNL1     0.0429
     90 H         4.525916   1.239467   -7.370752 H        1 UNL1     0.0308
     91 H         6.831915   1.078052   -9.383902 H        1 UNL1     0.0233
     92 H         5.120912   0.92477   -9.857682 H        1 UNL1     0.0233
     93 H         5.711313   2.415003   -9.153953 H        1 UNL1     0.0233
     94 H         4.698839   -0.98824   -8.703567 H        1 UNL1     0.0233
     95 H         6.11574   -1.279429   -7.682818 H        1 UNL1     0.0233
     96 H         4.520206   -1.029135   -6.937421 H        1 UNL1     0.0233
     97 H         3.280011   10.759964   0.340287 H        1 UNL1     0.0280
     98 H         4.867674   11.474658   0.264625 H        1 UNL1     0.0280
     99 H         3.811538   11.504788   -1.178773 H        1 UNL1     0.0280
     100 H         5.908473   11.298048   -2.380969 H        1 UNL1     0.2922
     101 H         4.56026   1.201039   2.605891 H        1 UNL1     0.0236
     102 H         5.90454   2.406724   2.678657 H        1 UNL1     0.0236
     103 H         6.16407   0.79853   2.077115 H        1 UNL1     0.0236
     104 H         4.271959   -0.354149   1.372094 H        1 UNL1     0.2098
     105 H         0.686728   1.319959   -0.892693 H        1 UNL1     0.0234
     106 H         1.332957   -0.343091   -0.980723 H        1 UNL1     0.0234
     107 H         0.0   -0.0   0.0 H        1 UNL1     0.0234
     108 H         0.984434   3.212292   1.870341 H        1 UNL1     0.2098
     109 H         0.875982   3.121178   -0.711482 H        1 UNL1     0.0234
     110 H         -0.295312   2.336452   -1.818315 H        1 UNL1     0.0234
     111 H         -0.191438   4.060106   -1.734216 H        1 UNL1     0.0234
     112 H         -3.516369   -1.94532   1.16362 H        1 UNL1     0.0342
     113 H         -3.475298   -0.304303   1.900924 H        1 UNL1     0.0342
     114 H         -4.431994   -0.607031   0.447975 H        1 UNL1     0.0342
     115 H         -2.864582   1.658939   3.26174 H        1 UNL1     0.0234
     116 H         -1.422751   1.513633   4.272083 H        1 UNL1     0.0234
     117 H         -1.81435   2.992579   3.370409 H        1 UNL1     0.0234
     118 H         0.297545   7.316875   -0.452327 H        1 UNL1     0.0309
     119 H         1.473315   8.227269   -1.45073 H        1 UNL1     0.0309
     120 H         1.297565   6.491858   -1.590798 H        1 UNL1     0.0309
     121 H         -1.222987   5.148651   4.152449 H        1 UNL1     0.0524
     122 H         -1.159059   6.247134   2.768214 H        1 UNL1     0.0524
     123 H         -2.669769   5.37624   3.132962 H        1 UNL1     0.0524
@<TRIPOS>BOND
     1     1     2    1
     2     1    42    1
     3     2     3    2
     4     3     4    1
     5     4     5    2
     6     5     7    1
     7     6    75    1
     8     6    76    1
     9     6    77    1
    10     7     9   am
    11     9    10    1
    12    10    11    2
    13    10    43    1
    14    11    14    1
    15    11    15    1
    16    12    13   ar
    17    12    27   ar
    18    12    43    1
    19    13    14    1
    20    13    30   ar
    21    14    17    2
    22    15    16    1
    23    16    17    1
    24    16    18    1
    25    16    22    1
    26    18    19    1
    27    19    20    1
    28    20    21    1
    29    21    22    1
    30    23    24    1
    31    23    88    1
    32    23    89    1
    33    24    25    1
    34    24    26    1
    35    24    90    1
    36    25    91    1
    37    25    92    1
    38    25    93    1
    39    26    94    1
    40    26    95    1
    41    26    96    1
    42    27    28   ar
    43    28    29   ar
    44    29    30   ar
    45    29    31    1
    46    30    33    1
    47    31    32    1
    48    32    33    1
    49    32    35    1
    50    34    97    1
    51    34    98    1
    52    34    99    1
    53    35    61    1
    54    36    37    1
    55    36    60    1
    56    37    38    1
    57    38    39    1
    58    39    40    1
    59    40    41    1
    60    41    42    1
    61    45   100    1
    62    47   101    1
    63    47   102    1
    64    47   103    1
    65    48   104    1
    66    49   105    1
    67    49   106    1
    68    49   107    1
    69    50   108    1
    70    51    59    1
    71    52   109    1
    72    52   110    1
    73    52   111    1
    74    53    54    1
    75    54    55    2
    76    54    56    1
    77    56   112    1
    78    56   113    1
    79    56   114    1
    80    57   115    1
    81    57   116    1
    82    57   117    1
    83    58   118    1
    84    58   119    1
    85    58   120    1
    86    59   121    1
    87    59   122    1
    88    59   123    1
    89    60    61    2
    90     1    47    1
    91     1    62    1
    92     2    63    1
    93     3    64    1
    94     4    65    1
    95     5     6    1
    96     7     8    2
    97     9    78    1
    98    15    79    1
    99    18    80    1
   100    18    81    1
   101    19    82    1
   102    19    83    1
   103    20    23    1
   104    21    84    1
   105    21    85    1
   106    22    86    1
   107    22    87    1
   108    27    45    1
   109    28    34    1
   110    32    58    1
   111    33    46    2
   112    36    51    1
   113    36    66    1
   114    37    52    1
   115    37    67    1
   116    38    53    1
   117    38    68    1
   118    42    48    1
   119    42    72    1
   120    43    44    2
   121    60    73    1
   122    61    74    1
   123    39    69    1
   124    39    57    1
   125    40    70    1
   126    40    50    1
   127    41    71    1
   128    41    49    1
