@<TRIPOS>MOLECULE
*****
 123 128 0 0 0
SMALL
GASTEIGER

@<TRIPOS>ATOM
     1 C         5.167503   1.747392   0.492758 C.3        1 UNL1     0.0009
     2 C         6.604611   2.553215   -0.357185 C.2        1 UNL1     -0.0787
     3 C         7.886629   2.454763   -1.022605 C.2        1 UNL1     -0.0649
     4 C         8.764587   3.689737   -1.777845 C.2        1 UNL1     -0.0542
     5 C         9.784922   3.982214   -2.716169 C.2        1 UNL1     0.0115
     6 C         10.913172   3.356566   -3.581582 C.3        1 UNL1     -0.0348
     7 C         9.880798   5.465509   -3.322496 C.2        1 UNL1     0.2441
     8 O         10.704802   6.286902   -2.944533 O.2        1 UNL1     -0.2702
     9 N         9.130921   5.672794   -4.493337 N.am        1 UNL1     -0.2772
     10 C         7.848229   6.059777   -4.17986 C.2        1 UNL1     0.1049
     11 C         7.002117   5.088554   -3.888237 C.2        1 UNL1     0.0801
     12 C         6.549907   7.66662   -2.769276 C.ar        1 UNL1     0.0753
     13 C         5.790443   6.538857   -2.322093 C.ar        1 UNL1     0.0305
     14 C         5.907194   5.233192   -2.967585 C.2        1 UNL1     0.0924
     15 N         7.12443   3.759561   -4.047433 N.pl3        1 UNL1     -0.3170
     16 C         5.854336   3.16069   -3.733634 C.3        1 UNL1     0.1275
     17 N         5.217943   4.115989   -2.753772 N.2        1 UNL1     -0.2557
     18 C         5.001817   3.220114   -4.99751 C.3        1 UNL1     0.0016
     19 C         5.756799   2.535941   -6.126004 C.3        1 UNL1     0.0026
     20 N         6.026485   1.157729   -5.740221 N.3        1 UNL1     -0.3018
     21 C         6.789493   0.997008   -4.500723 C.3        1 UNL1     0.0026
     22 C         6.01065   1.687615   -3.379848 C.3        1 UNL1     0.0016
     23 C         6.471053   0.33819   -6.849887 C.3        1 UNL1     0.0012
     24 C         5.315786   0.089118   -7.832271 C.3        1 UNL1     -0.0339
     25 C         5.341891   1.092409   -8.99708 C.3        1 UNL1     -0.0615
     26 C         5.354928   -1.345548   -8.329244 C.3        1 UNL1     -0.0615
     27 C         6.345444   8.934312   -2.229581 C.ar        1 UNL1     0.1347
     28 C         5.386219   9.204013   -1.26979 C.ar        1 UNL1     0.0342
     29 C         4.684247   8.069699   -0.809646 C.ar        1 UNL1     0.1435
     30 C         4.90348   6.787666   -1.315164 C.ar        1 UNL1     0.0774
     31 O         3.643076   8.183451   0.0436 O.3        1 UNL1     -0.4436
     32 C         2.921111   6.950834   -0.098861 C.3        1 UNL1     0.3143
     33 C         3.934279   5.957518   -0.630863 C.2        1 UNL1     0.2504
     34 C         4.93963   10.570189   -0.829087 C.3        1 UNL1     -0.0327
     35 O         2.56004   6.514098   1.217247 O.2        1 UNL1     -0.4528
     36 C         -0.683415   4.582799   0.819537 C.3        1 UNL1     0.0854
     37 C         -0.988833   3.322382   -0.078011 C.3        1 UNL1     0.0236
     38 C         -1.589909   2.061419   0.709659 C.3        1 UNL1     0.1131
     39 C         -0.864603   1.530169   2.011187 C.3        1 UNL1     0.0200
     40 C         0.796541   1.384186   2.052741 C.3        1 UNL1     0.0661
     41 C         1.75599   0.615216   0.884085 C.3        1 UNL1     0.0091
     42 C         3.463807   0.97738   0.320525 C.3        1 UNL1     0.0661
     43 C         7.500163   7.458776   -3.890023 C.2        1 UNL1     0.2131
     44 O         7.900453   8.356817   -4.608374 O.2        1 UNL1     -0.2851
     45 O         7.158092   9.96925   -2.68778 O.3        1 UNL1     -0.5056
     46 O         3.949921   4.753967   -0.500194 O.2        1 UNL1     -0.2836
     47 C         5.563409   1.317678   1.931016 C.3        1 UNL1     -0.0566
     48 O         3.911981   -0.43385   0.402288 O.3        1 UNL1     -0.3909
     49 C         0.922037   0.382958   -0.356105 C.3        1 UNL1     -0.0577
     50 O         1.396966   2.601855   2.445799 O.3        1 UNL1     -0.3910
     51 O         -0.807884   4.393031   2.210913 O.3        1 UNL1     -0.3753
     52 C         0.055853   3.16174   -1.230301 C.3        1 UNL1     -0.0564
     53 O         -2.192572   1.022674   -0.190415 O.3        1 UNL1     -0.4608
     54 C         -2.427406   -0.284046   0.149091 C.2        1 UNL1     0.3042
     55 O         -1.858467   -1.283287   -0.288704 O.2        1 UNL1     -0.2512
     56 C         -3.467721   -0.449511   1.220109 C.3        1 UNL1     0.0332
     57 C         -1.585752   2.199241   3.272322 C.3        1 UNL1     -0.0567
     58 C         1.846236   7.196304   -1.183259 C.3        1 UNL1     0.0210
     59 C         -1.151867   5.565696   2.94739 C.3        1 UNL1     0.0372
     60 C         0.645801   5.211552   0.589289 C.2        1 UNL1     -0.0208
     61 C         1.558647   5.646469   1.458947 C.2        1 UNL1     0.0882
     62 H         4.691822   2.731683   0.58 H        1 UNL1     0.0365
     63 H         6.338618   3.607075   -0.251853 H        1 UNL1     0.0576
     64 H         8.34408   1.487811   -1.243629 H        1 UNL1     0.0615
     65 H         8.277666   4.605233   -1.431062 H        1 UNL1     0.0622
     66 H         -1.427795   5.32955   0.509204 H        1 UNL1     0.0645
     67 H         -1.854157   3.632029   -0.689479 H        1 UNL1     0.0362
     68 H         -2.536945   2.498516   1.061214 H        1 UNL1     0.0741
     69 H         -1.196439   0.519143   2.206427 H        1 UNL1     0.0359
     70 H         0.907937   0.723752   2.933921 H        1 UNL1     0.0600
     71 H         1.799203   -0.405996   1.310952 H        1 UNL1     0.0348
     72 H         3.357828   1.465532   1.300215 H        1 UNL1     0.0602
     73 H         0.763989   5.408856   -0.44722 H        1 UNL1     0.0628
     74 H         1.540798   5.435721   2.528762 H        1 UNL1     0.1022
     75 H         10.957324   2.251263   -3.428645 H        1 UNL1     0.0279
     76 H         10.79981   3.439474   -4.660166 H        1 UNL1     0.0279
     77 H         11.918252   3.660976   -3.254705 H        1 UNL1     0.0279
     78 H         9.06881   4.802904   -5.018229 H        1 UNL1     0.1553
     79 H         7.789728   3.331443   -4.664707 H        1 UNL1     0.1484
     80 H         4.04036   2.72942   -4.803635 H        1 UNL1     0.0317
     81 H         4.775546   4.256949   -5.268481 H        1 UNL1     0.0317
     82 H         6.68766   3.067016   -6.373734 H        1 UNL1     0.0428
     83 H         5.131866   2.591323   -7.017879 H        1 UNL1     0.0428
     84 H         6.909465   -0.046001   -4.191609 H        1 UNL1     0.0428
     85 H         7.819707   1.364775   -4.604275 H        1 UNL1     0.0428
     86 H         6.526799   1.437042   -2.471667 H        1 UNL1     0.0317
     87 H         5.03105   1.210229   -3.255021 H        1 UNL1     0.0317
     88 H         7.267381   0.879817   -7.376952 H        1 UNL1     0.0429
     89 H         6.903316   -0.607725   -6.498936 H        1 UNL1     0.0429
     90 H         4.362831   0.196038   -7.300614 H        1 UNL1     0.0308
     91 H         6.292109   1.049471   -9.537769 H        1 UNL1     0.0233
     92 H         4.523565   0.896641   -9.693949 H        1 UNL1     0.0233
     93 H         5.214652   2.128014   -8.659193 H        1 UNL1     0.0233
     94 H         4.658806   -1.474876   -9.165021 H        1 UNL1     0.0233
     95 H         6.359317   -1.590062   -8.686145 H        1 UNL1     0.0233
     96 H         5.08019   -2.049374   -7.538601 H        1 UNL1     0.0233
     97 H         4.146108   10.520564   -0.08943 H        1 UNL1     0.0280
     98 H         5.752425   11.139981   -0.360091 H        1 UNL1     0.0280
     99 H         4.566299   11.134888   -1.69905 H        1 UNL1     0.0280
     100 H         6.691334   10.720009   -3.010457 H        1 UNL1     0.2922
     101 H         4.700366   0.884229   2.435927 H        1 UNL1     0.0236
     102 H         6.014271   2.122861   2.510144 H        1 UNL1     0.0236
     103 H         6.319447   0.514809   1.930029 H        1 UNL1     0.0236
     104 H         4.331283   -0.560015   1.275924 H        1 UNL1     0.2098
     105 H         0.709758   1.281888   -0.929406 H        1 UNL1     0.0234
     106 H         1.291367   -0.405113   -1.012205 H        1 UNL1     0.0234
     107 H         0.0   -0.0   0.0 H        1 UNL1     0.0234
     108 H         1.198748   3.26021   1.752224 H        1 UNL1     0.2098
     109 H         1.080572   3.047967   -0.849882 H        1 UNL1     0.0234
     110 H         -0.176653   2.334751   -1.909841 H        1 UNL1     0.0234
     111 H         0.077425   4.044596   -1.883024 H        1 UNL1     0.0234
     112 H         -3.600557   -1.51125   1.449046 H        1 UNL1     0.0342
     113 H         -3.224559   0.116372   2.118158 H        1 UNL1     0.0342
     114 H         -4.422132   -0.066386   0.833484 H        1 UNL1     0.0342
     115 H         -2.65545   1.951243   3.310166 H        1 UNL1     0.0234
     116 H         -1.149586   1.919297   4.23328 H        1 UNL1     0.0234
     117 H         -1.624051   3.301111   3.223764 H        1 UNL1     0.0234
     118 H         0.945197   7.683417   -0.771124 H        1 UNL1     0.0309
     119 H         2.215951   7.784251   -2.029328 H        1 UNL1     0.0309
     120 H         1.457517   6.264477   -1.60835 H        1 UNL1     0.0309
     121 H         -0.347415   6.288051   2.811681 H        1 UNL1     0.0524
     122 H         -2.081822   6.031815   2.581394 H        1 UNL1     0.0524
     123 H         -1.267852   5.327356   4.000878 H        1 UNL1     0.0524
@<TRIPOS>BOND
     1     1     2    1
     2     1    42    1
     3     2     3    2
     4     3     4    1
     5     4     5    2
     6     5     7    1
     7     6    75    1
     8     6    76    1
     9     6    77    1
    10     7     9   am
    11     9    10    1
    12    10    11    2
    13    10    43    1
    14    11    14    1
    15    11    15    1
    16    12    13   ar
    17    12    27   ar
    18    12    43    1
    19    13    14    1
    20    13    30   ar
    21    14    17    2
    22    15    16    1
    23    16    17    1
    24    16    18    1
    25    16    22    1
    26    18    19    1
    27    19    20    1
    28    20    21    1
    29    21    22    1
    30    23    24    1
    31    23    88    1
    32    23    89    1
    33    24    25    1
    34    24    26    1
    35    24    90    1
    36    25    91    1
    37    25    92    1
    38    25    93    1
    39    26    94    1
    40    26    95    1
    41    26    96    1
    42    27    28   ar
    43    28    29   ar
    44    29    30   ar
    45    29    31    1
    46    30    33    1
    47    31    32    1
    48    32    33    1
    49    32    35    1
    50    34    97    1
    51    34    98    1
    52    34    99    1
    53    35    61    1
    54    36    37    1
    55    36    60    1
    56    37    38    1
    57    38    39    1
    58    39    40    1
    59    40    41    1
    60    41    42    1
    61    45   100    1
    62    47   101    1
    63    47   102    1
    64    47   103    1
    65    48   104    1
    66    49   105    1
    67    49   106    1
    68    49   107    1
    69    50   108    1
    70    51    59    1
    71    52   109    1
    72    52   110    1
    73    52   111    1
    74    53    54    1
    75    54    55    2
    76    54    56    1
    77    56   112    1
    78    56   113    1
    79    56   114    1
    80    57   115    1
    81    57   116    1
    82    57   117    1
    83    58   118    1
    84    58   119    1
    85    58   120    1
    86    59   121    1
    87    59   122    1
    88    59   123    1
    89    60    61    2
    90     1    47    1
    91     1    62    1
    92     2    63    1
    93     3    64    1
    94     4    65    1
    95     5     6    1
    96     7     8    2
    97     9    78    1
    98    15    79    1
    99    18    80    1
   100    18    81    1
   101    19    82    1
   102    19    83    1
   103    20    23    1
   104    21    84    1
   105    21    85    1
   106    22    86    1
   107    22    87    1
   108    27    45    1
   109    28    34    1
   110    32    58    1
   111    33    46    2
   112    36    51    1
   113    36    66    1
   114    37    52    1
   115    37    67    1
   116    38    53    1
   117    38    68    1
   118    42    48    1
   119    42    72    1
   120    43    44    2
   121    60    73    1
   122    61    74    1
   123    39    69    1
   124    39    57    1
   125    40    70    1
   126    40    50    1
   127    41    71    1
   128    41    49    1
