@<TRIPOS>MOLECULE
*****
 123 128 0 0 0
SMALL
GASTEIGER

@<TRIPOS>ATOM
     1 C         -1.255365   3.199228   -4.145954 C.3        1 UNL1     0.0009
     2 C         -2.372633   3.337139   -5.618954 C.2        1 UNL1     -0.0787
     3 C         -2.563295   3.349429   -7.054065 C.2        1 UNL1     -0.0649
     4 C         -4.023329   3.405113   -7.909377 C.2        1 UNL1     -0.0542
     5 C         -4.649667   3.152841   -9.154823 C.2        1 UNL1     0.0115
     6 C         -4.387164   2.800151   -10.644798 C.3        1 UNL1     -0.0348
     7 C         -6.249034   3.025807   -9.208455 C.2        1 UNL1     0.2441
     8 O         -6.974951   3.92541   -9.608811 O.2        1 UNL1     -0.2702
     9 N         -6.743397   1.724486   -9.012703 N.am        1 UNL1     -0.2772
     10 C         -6.932029   1.479085   -7.671988 C.2        1 UNL1     0.1049
     11 C         -5.863053   1.10468   -6.992772 C.2        1 UNL1     0.0801
     12 C         -7.955681   2.444146   -5.603624 C.ar        1 UNL1     0.0753
     13 C         -6.697273   2.206587   -4.964419 C.ar        1 UNL1     0.0305
     14 C         -5.653256   1.408377   -5.603121 C.2        1 UNL1     0.0924
     15 N         -4.652774   0.717903   -7.431128 N.pl3        1 UNL1     -0.3170
     16 C         -3.903157   0.24977   -6.295707 C.3        1 UNL1     0.1275
     17 N         -4.478966   1.007448   -5.124345 N.2        1 UNL1     -0.2557
     18 C         -4.277364   -1.213331   -6.078893 C.3        1 UNL1     0.0016
     19 C         -4.011969   -1.978976   -7.365338 C.3        1 UNL1     0.0026
     20 N         -2.602944   -1.843756   -7.707965 N.3        1 UNL1     -0.3018
     21 C         -2.13343   -0.466973   -7.87647 C.3        1 UNL1     0.0026
     22 C         -2.405602   0.282472   -6.57104 C.3        1 UNL1     0.0016
     23 C         -2.182001   -2.770552   -8.739712 C.3        1 UNL1     0.0012
     24 C         -2.158272   -4.207661   -8.195735 C.3        1 UNL1     -0.0339
     25 C         -1.027658   -5.031746   -8.833427 C.3        1 UNL1     -0.0615
     26 C         -2.050708   -4.189373   -6.68085 C.3        1 UNL1     -0.0615
     27 C         -8.989009   3.102232   -4.940846 C.ar        1 UNL1     0.1347
     28 C         -8.895897   3.532027   -3.629108 C.ar        1 UNL1     0.0342
     29 C         -7.631295   3.330981   -3.036212 C.ar        1 UNL1     0.1435
     30 C         -6.575157   2.705613   -3.700071 C.ar        1 UNL1     0.0774
     31 O         -7.415737   3.595328   -1.729054 O.3        1 UNL1     -0.4436
     32 C         -6.235108   2.848755   -1.397967 C.3        1 UNL1     0.3143
     33 C         -5.515599   2.640662   -2.715244 C.2        1 UNL1     0.2504
     34 C         -10.036031   4.014967   -2.776487 C.3        1 UNL1     -0.0327
     35 O         -5.40382   3.698893   -0.598294 O.2        1 UNL1     -0.4528
     36 C         -3.462752   1.388689   1.704596 C.3        1 UNL1     0.0854
     37 C         -2.508097   0.18805   1.337686 C.3        1 UNL1     0.0236
     38 C         -1.032429   0.283966   1.958127 C.3        1 UNL1     0.1131
     39 C         -0.18902   1.609845   1.776535 C.3        1 UNL1     0.0200
     40 C         -0.15013   2.391333   0.303375 C.3        1 UNL1     0.0661
     41 C         0.17026   1.667795   -1.19711 C.3        1 UNL1     0.0091
     42 C         -0.457715   2.073743   -2.872298 C.3        1 UNL1     0.0661
     43 C         -8.154902   1.887398   -6.964727 C.2        1 UNL1     0.2131
     44 O         -9.25071   1.671978   -7.450048 O.2        1 UNL1     -0.2851
     45 O         -10.165875   3.333826   -5.649922 O.3        1 UNL1     -0.5056
     46 O         -4.331495   2.479841   -2.909888 O.2        1 UNL1     -0.2836
     47 C         -0.445754   4.510485   -3.958558 C.3        1 UNL1     -0.0566
     48 O         0.880384   2.026133   -3.509745 O.3        1 UNL1     -0.3909
     49 C         0.07965   0.165857   -1.043919 C.3        1 UNL1     -0.0577
     50 O         -1.233868   3.29083   0.184469 O.3        1 UNL1     -0.3910
     51 O         -2.860367   2.471385   2.377152 O.3        1 UNL1     -0.3753
     52 C         -2.768041   -0.340268   -0.110851 C.3        1 UNL1     -0.0564
     53 O         -0.269533   -1.006922   1.895492 O.3        1 UNL1     -0.4608
     54 C         1.072966   -1.125892   1.647553 C.2        1 UNL1     0.3042
     55 O         1.610788   -1.463661   0.593751 O.2        1 UNL1     -0.2512
     56 C         1.936723   -0.733904   2.812448 C.3        1 UNL1     0.0332
     57 C         -0.402933   2.500856   3.087457 C.3        1 UNL1     -0.0567
     58 C         -6.718161   1.477332   -0.87129 C.3        1 UNL1     0.0210
     59 C         -3.206641   2.587707   3.756438 C.3        1 UNL1     0.0372
     60 C         -4.220023   1.962692   0.559074 C.2        1 UNL1     -0.0208
     61 C         -4.437824   3.233104   0.216495 C.2        1 UNL1     0.0882
     62 H         -2.13476   3.278746   -3.495529 H        1 UNL1     0.0365
     63 H         -3.327119   3.54668   -5.131597 H        1 UNL1     0.0576
     64 H         -1.738911   3.151419   -7.742753 H        1 UNL1     0.0615
     65 H         -4.759359   3.684461   -7.150623 H        1 UNL1     0.0622
     66 H         -4.215769   0.948217   2.373175 H        1 UNL1     0.0645
     67 H         -2.92602   -0.667224   1.896621 H        1 UNL1     0.0362
     68 H         -1.280217   0.240244   3.029674 H        1 UNL1     0.0741
     69 H         0.854417   1.385574   1.953594 H        1 UNL1     0.0359
     70 H         0.733067   3.040891   0.455358 H        1 UNL1     0.0600
     71 H         1.266787   1.814567   -1.252267 H        1 UNL1     0.0348
     72 H         -0.624548   2.971856   -2.260026 H        1 UNL1     0.0602
     73 H         -4.723774   1.18108   0.046663 H        1 UNL1     0.0628
     74 H         -3.918173   4.08708   0.6523 H        1 UNL1     0.1022
     75 H         -3.584605   3.452169   -11.066468 H        1 UNL1     0.0279
     76 H         -4.007829   1.801066   -10.847289 H        1 UNL1     0.0279
     77 H         -5.236063   3.051755   -11.297306 H        1 UNL1     0.0279
     78 H         -6.066519   1.046212   -9.356007 H        1 UNL1     0.1553
     79 H         -4.473372   0.405074   -8.36755 H        1 UNL1     0.1484
     80 H         -3.6873   -1.613578   -5.245591 H        1 UNL1     0.0317
     81 H         -5.330078   -1.309635   -5.792239 H        1 UNL1     0.0317
     82 H         -4.654416   -1.629593   -8.186986 H        1 UNL1     0.0428
     83 H         -4.287263   -3.019274   -7.189144 H        1 UNL1     0.0428
     84 H         -1.056311   -0.389525   -8.054307 H        1 UNL1     0.0428
     85 H         -2.584242   0.013953   -8.755558 H        1 UNL1     0.0428
     86 H         -1.932183   1.240254   -6.682913 H        1 UNL1     0.0317
     87 H         -1.84749   -0.182021   -5.748936 H        1 UNL1     0.0317
     88 H         -2.908345   -2.719832   -9.561385 H        1 UNL1     0.0429
     89 H         -1.206085   -2.488283   -9.155267 H        1 UNL1     0.0429
     90 H         -3.114862   -4.693297   -8.422246 H        1 UNL1     0.0308
     91 H         -0.086921   -4.47322   -8.846268 H        1 UNL1     0.0233
     92 H         -0.880658   -5.969453   -8.292404 H        1 UNL1     0.0233
     93 H         -1.247276   -5.308888   -9.871597 H        1 UNL1     0.0233
     94 H         -1.650779   -5.142788   -6.31906 H        1 UNL1     0.0233
     95 H         -1.368233   -3.395662   -6.364287 H        1 UNL1     0.0233
     96 H         -3.025506   -4.023928   -6.213553 H        1 UNL1     0.0233
     97 H         -10.152873   3.418621   -1.876515 H        1 UNL1     0.0280
     98 H         -9.889052   5.048093   -2.43545 H        1 UNL1     0.0280
     99 H         -10.975187   3.961062   -3.351095 H        1 UNL1     0.0280
     100 H         -10.041561   3.716741   -6.500536 H        1 UNL1     0.2922
     101 H         -0.85918   5.08234   -3.128066 H        1 UNL1     0.0236
     102 H         -0.375158   5.104508   -4.869127 H        1 UNL1     0.0236
     103 H         0.600181   4.313694   -3.669617 H        1 UNL1     0.0236
     104 H         1.520203   2.415256   -2.881903 H        1 UNL1     0.2098
     105 H         -0.789173   -0.282462   -1.519279 H        1 UNL1     0.0234
     106 H         0.983806   -0.375594   -1.321877 H        1 UNL1     0.0234
     107 H         0.0   -0.0   0.0 H        1 UNL1     0.0234
     108 H         -0.867716   4.194705   0.236546 H        1 UNL1     0.2098
     109 H         -3.79343   -0.714072   -0.239533 H        1 UNL1     0.0234
     110 H         -2.548811   0.402305   -0.88562 H        1 UNL1     0.0234
     111 H         -2.110698   -1.184595   -0.357747 H        1 UNL1     0.0234
     112 H         2.992586   -0.831497   2.542307 H        1 UNL1     0.0342
     113 H         1.715318   0.271882   3.166309 H        1 UNL1     0.0342
     114 H         1.734808   -1.429432   3.638666 H        1 UNL1     0.0342
     115 H         0.500975   3.068934   3.347124 H        1 UNL1     0.0234
     116 H         -1.227338   3.212568   3.010838 H        1 UNL1     0.0234
     117 H         -0.551225   1.905388   4.004718 H        1 UNL1     0.0234
     118 H         -6.536953   1.361898   0.211689 H        1 UNL1     0.0309
     119 H         -7.775365   1.28509   -1.080014 H        1 UNL1     0.0309
     120 H         -6.165185   0.639859   -1.310565 H        1 UNL1     0.0309
     121 H         -3.091277   3.63396   4.038222 H        1 UNL1     0.0524
     122 H         -4.254959   2.305468   3.949848 H        1 UNL1     0.0524
     123 H         -2.555871   1.962654   4.361335 H        1 UNL1     0.0524
@<TRIPOS>BOND
     1     1     2    1
     2     1    42    1
     3     2     3    2
     4     3     4    1
     5     4     5    2
     6     5     7    1
     7     6    75    1
     8     6    76    1
     9     6    77    1
    10     7     9   am
    11     9    10    1
    12    10    11    2
    13    10    43    1
    14    11    14    1
    15    11    15    1
    16    12    13   ar
    17    12    27   ar
    18    12    43    1
    19    13    14    1
    20    13    30   ar
    21    14    17    2
    22    15    16    1
    23    16    17    1
    24    16    18    1
    25    16    22    1
    26    18    19    1
    27    19    20    1
    28    20    21    1
    29    21    22    1
    30    23    24    1
    31    23    88    1
    32    23    89    1
    33    24    25    1
    34    24    26    1
    35    24    90    1
    36    25    91    1
    37    25    92    1
    38    25    93    1
    39    26    94    1
    40    26    95    1
    41    26    96    1
    42    27    28   ar
    43    28    29   ar
    44    29    30   ar
    45    29    31    1
    46    30    33    1
    47    31    32    1
    48    32    33    1
    49    32    35    1
    50    34    97    1
    51    34    98    1
    52    34    99    1
    53    35    61    1
    54    36    37    1
    55    36    60    1
    56    37    38    1
    57    38    39    1
    58    39    40    1
    59    40    41    1
    60    41    42    1
    61    45   100    1
    62    47   101    1
    63    47   102    1
    64    47   103    1
    65    48   104    1
    66    49   105    1
    67    49   106    1
    68    49   107    1
    69    50   108    1
    70    51    59    1
    71    52   109    1
    72    52   110    1
    73    52   111    1
    74    53    54    1
    75    54    55    2
    76    54    56    1
    77    56   112    1
    78    56   113    1
    79    56   114    1
    80    57   115    1
    81    57   116    1
    82    57   117    1
    83    58   118    1
    84    58   119    1
    85    58   120    1
    86    59   121    1
    87    59   122    1
    88    59   123    1
    89    60    61    2
    90     1    47    1
    91     1    62    1
    92     2    63    1
    93     3    64    1
    94     4    65    1
    95     5     6    1
    96     7     8    2
    97     9    78    1
    98    15    79    1
    99    18    80    1
   100    18    81    1
   101    19    82    1
   102    19    83    1
   103    20    23    1
   104    21    84    1
   105    21    85    1
   106    22    86    1
   107    22    87    1
   108    27    45    1
   109    28    34    1
   110    32    58    1
   111    33    46    2
   112    36    51    1
   113    36    66    1
   114    37    52    1
   115    37    67    1
   116    38    53    1
   117    38    68    1
   118    42    48    1
   119    42    72    1
   120    43    44    2
   121    60    73    1
   122    61    74    1
   123    39    69    1
   124    39    57    1
   125    40    70    1
   126    40    50    1
   127    41    71    1
   128    41    49    1
