@<TRIPOS>MOLECULE
*****
 123 128 0 0 0
SMALL
GASTEIGER

@<TRIPOS>ATOM
     1 C         5.115526   1.896183   0.497636 C.3        1 UNL1     0.0009
     2 C         6.511353   2.782829   -0.340555 C.2        1 UNL1     -0.0787
     3 C         7.790486   2.754928   -1.018114 C.2        1 UNL1     -0.0649
     4 C         8.611065   4.044827   -1.745552 C.2        1 UNL1     -0.0542
     5 C         9.610523   4.404168   -2.683122 C.2        1 UNL1     0.0115
     6 C         10.755659   3.848898   -3.573999 C.3        1 UNL1     -0.0348
     7 C         9.640917   5.90614   -3.248935 C.2        1 UNL1     0.2441
     8 O         10.434191   6.749816   -2.854657 O.2        1 UNL1     -0.2702
     9 N         8.873121   6.114575   -4.407898 N.am        1 UNL1     -0.2772
     10 C         7.578563   6.440242   -4.074158 C.2        1 UNL1     0.1049
     11 C         6.775086   5.427733   -3.803098 C.2        1 UNL1     0.0801
     12 C         6.22845   7.953707   -2.609934 C.ar        1 UNL1     0.0753
     13 C         5.519244   6.78413   -2.188358 C.ar        1 UNL1     0.0305
     14 C         5.683229   5.502423   -2.87055 C.2        1 UNL1     0.0924
     15 N         6.949794   4.109673   -3.99988 N.pl3        1 UNL1     -0.3170
     16 C         5.707796   3.451179   -3.693158 C.3        1 UNL1     0.1275
     17 N         5.041721   4.352629   -2.682487 N.2        1 UNL1     -0.2557
     18 C         4.842633   3.510286   -4.948428 C.3        1 UNL1     0.0016
     19 C         5.614912   2.888529   -6.101073 C.3        1 UNL1     0.0026
     20 N         5.943591   1.512437   -5.755574 N.3        1 UNL1     -0.3018
     21 C         6.723215   1.34917   -4.526794 C.3        1 UNL1     0.0026
     22 C         5.926769   1.97659   -3.381407 C.3        1 UNL1     0.0016
     23 C         6.411375   0.742308   -6.890793 C.3        1 UNL1     0.0012
     24 C         6.275048   -0.763086   -6.613376 C.3        1 UNL1     -0.0339
     25 C         4.976002   -1.329457   -7.209835 C.3        1 UNL1     -0.0615
     26 C         7.496795   -1.501043   -7.132542 C.3        1 UNL1     -0.0615
     27 C         5.97745   9.1968   -2.033883 C.ar        1 UNL1     0.1347
     28 C         5.016444   9.400865   -1.059781 C.ar        1 UNL1     0.0342
     29 C         4.365057   8.226737   -0.625866 C.ar        1 UNL1     0.1435
     30 C         4.631693   6.968988   -1.168262 C.ar        1 UNL1     0.0774
     31 O         3.327573   8.274609   0.238045 O.3        1 UNL1     -0.4436
     32 C         2.654967   7.017935   0.067037 C.3        1 UNL1     0.3143
     33 C         3.70292   6.081644   -0.499855 C.2        1 UNL1     0.2504
     34 C         4.518673   10.735157   -0.578128 C.3        1 UNL1     -0.0327
     35 O         2.323333   6.531069   1.373266 O.2        1 UNL1     -0.4528
     36 C         -0.842482   4.480731   0.946868 C.3        1 UNL1     0.0854
     37 C         -1.104325   3.233889   0.017166 C.3        1 UNL1     0.0236
     38 C         -1.646924   1.928434   0.77421 C.3        1 UNL1     0.1131
     39 C         -0.88941   1.391855   2.05504 C.3        1 UNL1     0.0200
     40 C         0.776585   1.312631   2.079984 C.3        1 UNL1     0.0661
     41 C         1.756244   0.615611   0.883305 C.3        1 UNL1     0.0091
     42 C         3.44302   1.062348   0.317073 C.3        1 UNL1     0.0661
     43 C         7.176591   7.815452   -3.743148 C.2        1 UNL1     0.2131
     44 O         7.533894   8.748344   -4.439413 O.2        1 UNL1     -0.2851
     45 O         6.743463   10.276131   -2.469436 O.3        1 UNL1     -0.5056
     46 O         3.768478   4.876612   -0.402618 O.2        1 UNL1     -0.2836
     47 C         5.540994   1.443856   1.920435 C.3        1 UNL1     -0.0566
     48 O         3.948734   -0.331145   0.356416 O.3        1 UNL1     -0.3909
     49 C         0.921663   0.383498   -0.35649 C.3        1 UNL1     -0.0577
     50 O         1.330536   2.542578   2.501992 O.3        1 UNL1     -0.3910
     51 O         -0.947076   4.248127   2.333369 O.3        1 UNL1     -0.3753
     52 C         -0.064022   3.147491   -1.146989 C.3        1 UNL1     -0.0564
     53 O         -2.214765   0.890948   -0.149644 O.3        1 UNL1     -0.4608
     54 C         -2.393473   -0.433042   0.155387 C.2        1 UNL1     0.3042
     55 O         -1.78831   -1.395932   -0.314143 O.2        1 UNL1     -0.2512
     56 C         -3.416891   -0.669962   1.229257 C.3        1 UNL1     0.0332
     57 C         -1.626123   1.996287   3.339598 C.3        1 UNL1     -0.0567
     58 C         1.561655   7.248899   -1.002006 C.3        1 UNL1     0.0210
     59 C         -1.301247   5.392759   3.108125 C.3        1 UNL1     0.0372
     60 C         0.458101   5.169202   0.724041 C.2        1 UNL1     -0.0208
     61 C         1.360076   5.617062   1.59846 C.2        1 UNL1     0.0882
     62 H         4.601105   2.857515   0.615638 H        1 UNL1     0.0365
     63 H         6.203775   3.8217   -0.204131 H        1 UNL1     0.0576
     64 H         8.284828   1.813825   -1.269226 H        1 UNL1     0.0615
     65 H         8.090454   4.929902   -1.369931 H        1 UNL1     0.0622
     66 H         -1.619191   5.204711   0.662926 H        1 UNL1     0.0645
     67 H         -1.986764   3.524582   -0.578953 H        1 UNL1     0.0362
     68 H         -2.607817   2.316798   1.144859 H        1 UNL1     0.0741
     69 H         -1.178276   0.363187   2.224768 H        1 UNL1     0.0359
     70 H         0.922308   0.633474   2.941709 H        1 UNL1     0.0600
     71 H         1.844528   -0.414265   1.281448 H        1 UNL1     0.0348
     72 H         3.325842   1.518841   1.310652 H        1 UNL1     0.0602
     73 H         0.559194   5.399387   -0.307484 H        1 UNL1     0.0628
     74 H         1.36007   5.37663   2.662146 H        1 UNL1     0.1022
     75 H         10.845913   2.74255   -3.452004 H        1 UNL1     0.0279
     76 H         10.629674   3.956535   -4.648992 H        1 UNL1     0.0279
     77 H         11.750369   4.18499   -3.246442 H        1 UNL1     0.0279
     78 H         8.841777   5.257533   -4.956144 H        1 UNL1     0.1553
     79 H         7.626521   3.726048   -4.633761 H        1 UNL1     0.1484
     80 H         3.90358   2.975695   -4.760925 H        1 UNL1     0.0317
     81 H         4.572169   4.544047   -5.188925 H        1 UNL1     0.0317
     82 H         6.521292   3.463676   -6.341063 H        1 UNL1     0.0428
     83 H         4.980532   2.942719   -6.986328 H        1 UNL1     0.0428
     84 H         6.888053   0.303869   -4.247538 H        1 UNL1     0.0428
     85 H         7.736734   1.76132   -4.627929 H        1 UNL1     0.0428
     86 H         6.460513   1.722563   -2.484426 H        1 UNL1     0.0317
     87 H         4.968448   1.456436   -3.262418 H        1 UNL1     0.0317
     88 H         5.786042   0.996145   -7.756715 H        1 UNL1     0.0429
     89 H         7.444583   1.004807   -7.15223 H        1 UNL1     0.0429
     90 H         6.263044   -0.928959   -5.529607 H        1 UNL1     0.0308
     91 H         4.921338   -1.14883   -8.287558 H        1 UNL1     0.0233
     92 H         4.900542   -2.403038   -7.021846 H        1 UNL1     0.0233
     93 H         4.080781   -0.877587   -6.765732 H        1 UNL1     0.0233
     94 H         7.321999   -2.582183   -7.112077 H        1 UNL1     0.0233
     95 H         7.696244   -1.211339   -8.168039 H        1 UNL1     0.0233
     96 H         8.381655   -1.28255   -6.528182 H        1 UNL1     0.0233
     97 H         3.727913   10.633112   0.159108 H        1 UNL1     0.0280
     98 H         5.309528   11.320786   -0.091464 H        1 UNL1     0.0280
     99 H         4.123873   11.311483   -1.430816 H        1 UNL1     0.0280
     100 H         6.24387   11.016259   -2.766488 H        1 UNL1     0.2922
     101 H         4.700648   0.961959   2.419685 H        1 UNL1     0.0236
     102 H         5.963848   2.250636   2.518167 H        1 UNL1     0.0236
     103 H         6.328924   0.672802   1.891545 H        1 UNL1     0.0236
     104 H         4.38006   -0.464027   1.223175 H        1 UNL1     0.2098
     105 H         0.708663   1.282569   -0.929302 H        1 UNL1     0.0234
     106 H         1.290946   -0.404148   -1.013126 H        1 UNL1     0.0234
     107 H         0.0   -0.0   0.0 H        1 UNL1     0.0234
     108 H         1.10521   3.209641   1.825218 H        1 UNL1     0.2098
     109 H         0.967729   3.065242   -0.777616 H        1 UNL1     0.0234
     110 H         -0.268696   2.330574   -1.847345 H        1 UNL1     0.0234
     111 H         -0.083926   4.047985   -1.775209 H        1 UNL1     0.0234
     112 H         -3.504439   -1.742074   1.429901 H        1 UNL1     0.0342
     113 H         -3.189191   -0.119218   2.140672 H        1 UNL1     0.0342
     114 H         -4.389407   -0.315831   0.860518 H        1 UNL1     0.0342
     115 H         -2.684518   1.703947   3.37866 H        1 UNL1     0.0234
     116 H         -1.170643   1.708223   4.289128 H        1 UNL1     0.0234
     117 H         -1.709483   3.096594   3.3218 H        1 UNL1     0.0234
     118 H         0.644654   7.685998   -0.569502 H        1 UNL1     0.0309
     119 H         1.8994   7.875572   -1.833518 H        1 UNL1     0.0309
     120 H         1.208455   6.314066   -1.45083 H        1 UNL1     0.0309
     121 H         -0.510377   6.132089   2.984548 H        1 UNL1     0.0524
     122 H         -2.243021   5.853872   2.766841 H        1 UNL1     0.0524
     123 H         -1.400637   5.121677   4.155374 H        1 UNL1     0.0524
@<TRIPOS>BOND
     1     1     2    1
     2     1    42    1
     3     2     3    2
     4     3     4    1
     5     4     5    2
     6     5     7    1
     7     6    75    1
     8     6    76    1
     9     6    77    1
    10     7     9   am
    11     9    10    1
    12    10    11    2
    13    10    43    1
    14    11    14    1
    15    11    15    1
    16    12    13   ar
    17    12    27   ar
    18    12    43    1
    19    13    14    1
    20    13    30   ar
    21    14    17    2
    22    15    16    1
    23    16    17    1
    24    16    18    1
    25    16    22    1
    26    18    19    1
    27    19    20    1
    28    20    21    1
    29    21    22    1
    30    23    24    1
    31    23    88    1
    32    23    89    1
    33    24    25    1
    34    24    26    1
    35    24    90    1
    36    25    91    1
    37    25    92    1
    38    25    93    1
    39    26    94    1
    40    26    95    1
    41    26    96    1
    42    27    28   ar
    43    28    29   ar
    44    29    30   ar
    45    29    31    1
    46    30    33    1
    47    31    32    1
    48    32    33    1
    49    32    35    1
    50    34    97    1
    51    34    98    1
    52    34    99    1
    53    35    61    1
    54    36    37    1
    55    36    60    1
    56    37    38    1
    57    38    39    1
    58    39    40    1
    59    40    41    1
    60    41    42    1
    61    45   100    1
    62    47   101    1
    63    47   102    1
    64    47   103    1
    65    48   104    1
    66    49   105    1
    67    49   106    1
    68    49   107    1
    69    50   108    1
    70    51    59    1
    71    52   109    1
    72    52   110    1
    73    52   111    1
    74    53    54    1
    75    54    55    2
    76    54    56    1
    77    56   112    1
    78    56   113    1
    79    56   114    1
    80    57   115    1
    81    57   116    1
    82    57   117    1
    83    58   118    1
    84    58   119    1
    85    58   120    1
    86    59   121    1
    87    59   122    1
    88    59   123    1
    89    60    61    2
    90     1    47    1
    91     1    62    1
    92     2    63    1
    93     3    64    1
    94     4    65    1
    95     5     6    1
    96     7     8    2
    97     9    78    1
    98    15    79    1
    99    18    80    1
   100    18    81    1
   101    19    82    1
   102    19    83    1
   103    20    23    1
   104    21    84    1
   105    21    85    1
   106    22    86    1
   107    22    87    1
   108    27    45    1
   109    28    34    1
   110    32    58    1
   111    33    46    2
   112    36    51    1
   113    36    66    1
   114    37    52    1
   115    37    67    1
   116    38    53    1
   117    38    68    1
   118    42    48    1
   119    42    72    1
   120    43    44    2
   121    60    73    1
   122    61    74    1
   123    39    69    1
   124    39    57    1
   125    40    70    1
   126    40    50    1
   127    41    71    1
   128    41    49    1
