@<TRIPOS>MOLECULE
*****
 123 128 0 0 0
SMALL
GASTEIGER

@<TRIPOS>ATOM
     1 C         1.347151   -1.548854   4.978571 C.3        1 UNL1     0.0009
     2 C         1.717406   -3.044065   6.010218 C.2        1 UNL1     -0.0787
     3 C         1.35658   -3.955989   7.075227 C.2        1 UNL1     -0.0649
     4 C         2.143494   -5.382917   7.534577 C.2        1 UNL1     -0.0542
     5 C         2.007217   -6.614571   8.22126 C.2        1 UNL1     0.0115
     6 C         1.08257   -7.431327   9.165327 C.3        1 UNL1     -0.0348
     7 C         3.068883   -7.784475   7.936339 C.2        1 UNL1     0.2441
     8 O         3.987111   -8.050187   8.699739 O.2        1 UNL1     -0.2702
     9 N         2.721827   -8.651753   6.885848 N.am        1 UNL1     -0.2772
     10 C         3.184996   -8.162323   5.686159 C.2        1 UNL1     0.1049
     11 C         2.429244   -7.252989   5.097793 C.2        1 UNL1     0.0801
     12 C         5.227684   -7.238244   4.576728 C.ar        1 UNL1     0.0753
     13 C         4.402231   -6.155777   4.134575 C.ar        1 UNL1     0.0305
     14 C         2.948011   -6.197328   4.270849 C.2        1 UNL1     0.0924
     15 N         1.170003   -6.869357   5.369206 N.pl3        1 UNL1     -0.3170
     16 C         0.750224   -5.970479   4.327065 C.3        1 UNL1     0.1275
     17 N         2.029708   -5.340379   3.833489 N.2        1 UNL1     -0.2557
     18 C         0.227591   -6.824994   3.176257 C.3        1 UNL1     0.0016
     19 C         -0.872823   -7.73151   3.704373 C.3        1 UNL1     0.0026
     20 N         -1.931739   -6.903829   4.265327 N.3        1 UNL1     -0.3018
     21 C         -1.512266   -6.001087   5.339324 C.3        1 UNL1     0.0026
     22 C         -0.409888   -5.096684   4.785507 C.3        1 UNL1     0.0016
     23 C         -3.15057   -7.644891   4.522079 C.3        1 UNL1     0.0012
     24 C         -3.830055   -8.038451   3.201032 C.3        1 UNL1     -0.0339
     25 C         -5.362239   -8.004094   3.324673 C.3        1 UNL1     -0.0615
     26 C         -3.339785   -7.143216   2.076323 C.3        1 UNL1     -0.0615
     27 C         6.599386   -7.245358   4.334855 C.ar        1 UNL1     0.1347
     28 C         7.249972   -6.248995   3.629131 C.ar        1 UNL1     0.0342
     29 C         6.425416   -5.16982   3.246177 C.ar        1 UNL1     0.1435
     30 C         5.056291   -5.131794   3.513143 C.ar        1 UNL1     0.0774
     31 O         6.88755   -4.175067   2.457567 O.3        1 UNL1     -0.4436
     32 C         5.707171   -3.565575   1.913418 C.3        1 UNL1     0.3143
     33 C         4.599007   -3.908049   2.888558 C.2        1 UNL1     0.2504
     34 C         8.661712   -6.310025   3.115939 C.3        1 UNL1     -0.0327
     35 O         5.893472   -2.146171   1.975339 O.2        1 UNL1     -0.4528
     36 C         3.929275   -0.710705   -0.938328 C.3        1 UNL1     0.0854
     37 C         2.396295   -0.861436   -1.277114 C.3        1 UNL1     0.0236
     38 C         1.605377   0.521588   -1.459973 C.3        1 UNL1     0.1131
     39 C         1.719719   1.643975   -0.35117 C.3        1 UNL1     0.0200
     40 C         1.636705   1.245187   1.266395 C.3        1 UNL1     0.0661
     41 C         0.446105   0.278746   1.991705 C.3        1 UNL1     0.0091
     42 C         0.550705   -0.86578   3.421573 C.3        1 UNL1     0.0661
     43 C         4.560942   -8.395884   5.222935 C.2        1 UNL1     0.2131
     44 O         5.053897   -9.507544   5.285744 O.2        1 UNL1     -0.2851
     45 O         7.337721   -8.314259   4.838593 O.3        1 UNL1     -0.5056
     46 O         3.578897   -3.296534   3.115006 O.2        1 UNL1     -0.2836
     47 C         1.607319   -0.253461   5.793586 C.3        1 UNL1     -0.0566
     48 O         -0.669542   -0.338259   4.078713 O.3        1 UNL1     -0.3909
     49 C         -0.327033   -0.438822   0.907802 C.3        1 UNL1     -0.0577
     50 O         2.91274   0.89314   1.761894 O.3        1 UNL1     -0.3910
     51 O         4.374435   0.599223   -0.66749 O.3        1 UNL1     -0.3753
     52 C         1.759517   -2.094072   -0.555954 C.3        1 UNL1     -0.0564
     53 O         0.26464   0.36452   -2.115779 O.3        1 UNL1     -0.4608
     54 C         -0.863877   1.074092   -1.798155 C.2        1 UNL1     0.3042
     55 O         -1.824894   0.690176   -1.132652 O.2        1 UNL1     -0.2512
     56 C         -0.844577   2.49033   -2.298766 C.3        1 UNL1     0.0332
     57 C         2.866057   2.660481   -0.810299 C.3        1 UNL1     -0.0567
     58 C         5.426944   -4.277753   0.569615 C.3        1 UNL1     0.0210
     59 C         5.75376   0.833465   -0.947597 C.3        1 UNL1     0.0372
     60 C         4.413946   -1.568081   0.17754 C.2        1 UNL1     -0.0208
     61 C         5.205643   -1.276719   1.21053 C.2        1 UNL1     0.0882
     62 H         2.259371   -1.744397   4.402092 H        1 UNL1     0.0365
     63 H         2.703692   -3.315787   5.628281 H        1 UNL1     0.0576
     64 H         0.40021   -3.877009   7.59698 H        1 UNL1     0.0615
     65 H         3.109041   -5.323696   7.024975 H        1 UNL1     0.0622
     66 H         4.447502   -1.06757   -1.839513 H        1 UNL1     0.0645
     67 H         2.387122   -1.257403   -2.307495 H        1 UNL1     0.0362
     68 H         2.136273   0.922548   -2.336844 H        1 UNL1     0.0741
     69 H         0.894621   2.333893   -0.467941 H        1 UNL1     0.0359
     70 H         1.437934   2.244322   1.699154 H        1 UNL1     0.0600
     71 H         -0.278714   1.059696   2.294545 H        1 UNL1     0.0348
     72 H         1.420925   -0.1984   3.503044 H        1 UNL1     0.0602
     73 H         4.13289   -2.574941   -0.008173 H        1 UNL1     0.0628
     74 H         5.491205   -0.265598   1.502636 H        1 UNL1     0.1022
     75 H         0.741307   -6.800905   10.021564 H        1 UNL1     0.0279
     76 H         0.143204   -7.779877   8.742038 H        1 UNL1     0.0279
     77 H         1.615675   -8.238235   9.689157 H        1 UNL1     0.0279
     78 H         1.708411   -8.719038   6.818489 H        1 UNL1     0.1553
     79 H         0.524268   -7.41792   5.906829 H        1 UNL1     0.1484
     80 H         -0.143024   -6.166356   2.38152 H        1 UNL1     0.0317
     81 H         1.032349   -7.424173   2.736937 H        1 UNL1     0.0317
     82 H         -0.490466   -8.444124   4.449958 H        1 UNL1     0.0428
     83 H         -1.229991   -8.333184   2.868029 H        1 UNL1     0.0428
     84 H         -2.307509   -5.334899   5.688026 H        1 UNL1     0.0428
     85 H         -1.210499   -6.551286   6.241286 H        1 UNL1     0.0428
     86 H         -0.222297   -4.366815   5.551072 H        1 UNL1     0.0317
     87 H         -0.799538   -4.497424   3.953547 H        1 UNL1     0.0317
     88 H         -2.885082   -8.561359   5.065123 H        1 UNL1     0.0429
     89 H         -3.834736   -7.076655   5.165351 H        1 UNL1     0.0429
     90 H         -3.524411   -9.055708   2.929032 H        1 UNL1     0.0308
     91 H         -5.700695   -7.090503   3.822571 H        1 UNL1     0.0233
     92 H         -5.830836   -8.070553   2.339985 H        1 UNL1     0.0233
     93 H         -5.753247   -8.847258   3.906929 H        1 UNL1     0.0233
     94 H         -4.063384   -7.139269   1.253995 H        1 UNL1     0.0233
     95 H         -3.232677   -6.116043   2.436053 H        1 UNL1     0.0233
     96 H         -2.376042   -7.483169   1.686963 H        1 UNL1     0.0233
     97 H         8.904758   -5.456969   2.489478 H        1 UNL1     0.0280
     98 H         9.398485   -6.304818   3.929816 H        1 UNL1     0.0280
     99 H         8.798226   -7.22688   2.519418 H        1 UNL1     0.0280
     100 H         7.914911   -8.719562   4.215534 H        1 UNL1     0.2922
     101 H         2.538814   0.206886   5.464869 H        1 UNL1     0.0236
     102 H         1.588314   -0.413842   6.871036 H        1 UNL1     0.0236
     103 H         0.836192   0.513245   5.609958 H        1 UNL1     0.0236
     104 H         -0.679413   0.63021   3.948554 H        1 UNL1     0.2098
     105 H         -0.133056   -1.506918   0.849873 H        1 UNL1     0.0234
     106 H         -1.400378   -0.249521   0.912679 H        1 UNL1     0.0234
     107 H         0.0   0.0   0.0 H        1 UNL1     0.0234
     108 H         3.20363   1.614332   2.352684 H        1 UNL1     0.2098
     109 H         2.303952   -3.025463   -0.765269 H        1 UNL1     0.0234
     110 H         1.66756   -1.958888   0.527103 H        1 UNL1     0.0234
     111 H         0.728635   -2.270736   -0.890646 H        1 UNL1     0.0234
     112 H         -1.761028   3.005079   -1.994634 H        1 UNL1     0.0342
     113 H         0.037981   3.031881   -1.961634 H        1 UNL1     0.0342
     114 H         -0.820714   2.465752   -3.396942 H        1 UNL1     0.0342
     115 H         2.645333   3.691523   -0.501397 H        1 UNL1     0.0234
     116 H         3.859153   2.409872   -0.432138 H        1 UNL1     0.0234
     117 H         2.938018   2.776893   -1.905384 H        1 UNL1     0.0234
     118 H         5.689951   -3.646267   -0.297021 H        1 UNL1     0.0309
     119 H         5.938559   -5.241217   0.479117 H        1 UNL1     0.0309
     120 H         4.361939   -4.484491   0.417525 H        1 UNL1     0.0309
     121 H         6.085847   1.650888   -0.308148 H        1 UNL1     0.0524
     122 H         6.381965   -0.043432   -0.718578 H        1 UNL1     0.0524
     123 H         5.88533   1.098096   -1.992945 H        1 UNL1     0.0524
@<TRIPOS>BOND
     1     1     2    1
     2     1    42    1
     3     2     3    2
     4     3     4    1
     5     4     5    2
     6     5     7    1
     7     6    75    1
     8     6    76    1
     9     6    77    1
    10     7     9   am
    11     9    10    1
    12    10    11    2
    13    10    43    1
    14    11    14    1
    15    11    15    1
    16    12    13   ar
    17    12    27   ar
    18    12    43    1
    19    13    14    1
    20    13    30   ar
    21    14    17    2
    22    15    16    1
    23    16    17    1
    24    16    18    1
    25    16    22    1
    26    18    19    1
    27    19    20    1
    28    20    21    1
    29    21    22    1
    30    23    24    1
    31    23    88    1
    32    23    89    1
    33    24    25    1
    34    24    26    1
    35    24    90    1
    36    25    91    1
    37    25    92    1
    38    25    93    1
    39    26    94    1
    40    26    95    1
    41    26    96    1
    42    27    28   ar
    43    28    29   ar
    44    29    30   ar
    45    29    31    1
    46    30    33    1
    47    31    32    1
    48    32    33    1
    49    32    35    1
    50    34    97    1
    51    34    98    1
    52    34    99    1
    53    35    61    1
    54    36    37    1
    55    36    60    1
    56    37    38    1
    57    38    39    1
    58    39    40    1
    59    40    41    1
    60    41    42    1
    61    45   100    1
    62    47   101    1
    63    47   102    1
    64    47   103    1
    65    48   104    1
    66    49   105    1
    67    49   106    1
    68    49   107    1
    69    50   108    1
    70    51    59    1
    71    52   109    1
    72    52   110    1
    73    52   111    1
    74    53    54    1
    75    54    55    2
    76    54    56    1
    77    56   112    1
    78    56   113    1
    79    56   114    1
    80    57   115    1
    81    57   116    1
    82    57   117    1
    83    58   118    1
    84    58   119    1
    85    58   120    1
    86    59   121    1
    87    59   122    1
    88    59   123    1
    89    60    61    2
    90     1    47    1
    91     1    62    1
    92     2    63    1
    93     3    64    1
    94     4    65    1
    95     5     6    1
    96     7     8    2
    97     9    78    1
    98    15    79    1
    99    18    80    1
   100    18    81    1
   101    19    82    1
   102    19    83    1
   103    20    23    1
   104    21    84    1
   105    21    85    1
   106    22    86    1
   107    22    87    1
   108    27    45    1
   109    28    34    1
   110    32    58    1
   111    33    46    2
   112    36    51    1
   113    36    66    1
   114    37    52    1
   115    37    67    1
   116    38    53    1
   117    38    68    1
   118    42    48    1
   119    42    72    1
   120    43    44    2
   121    60    73    1
   122    61    74    1
   123    39    69    1
   124    39    57    1
   125    40    70    1
   126    40    50    1
   127    41    71    1
   128    41    49    1
