@<TRIPOS>MOLECULE
*****
 123 128 0 0 0
SMALL
GASTEIGER

@<TRIPOS>ATOM
     1 C         4.253725   2.352082   -2.526912 C.3        1 UNL1     0.0009
     2 C         5.704522   2.093144   -3.651712 C.2        1 UNL1     -0.0787
     3 C         7.129331   1.924449   -3.845386 C.2        1 UNL1     -0.0649
     4 C         7.94903   1.567965   -5.283221 C.2        1 UNL1     -0.0542
     5 C         9.149548   1.062949   -5.840711 C.2        1 UNL1     0.0115
     6 C         10.606572   0.637016   -5.510582 C.3        1 UNL1     -0.0348
     7 C         9.150828   0.574893   -7.370021 C.2        1 UNL1     0.2441
     8 O         9.614393   1.245486   -8.282127 O.2        1 UNL1     -0.2702
     9 N         8.822923   -0.779326   -7.556358 N.am        1 UNL1     -0.2772
     10 C         7.460907   -0.931034   -7.679722 C.2        1 UNL1     0.1049
     11 C         6.777093   -0.988452   -6.551306 C.2        1 UNL1     0.0801
     12 C         5.465721   -0.027012   -8.887742 C.ar        1 UNL1     0.0753
     13 C         4.83919   0.087029   -7.605922 C.ar        1 UNL1     0.0305
     14 C         5.427299   -0.513422   -6.410666 C.2        1 UNL1     0.0924
     15 N         7.2081   -1.133337   -5.286487 N.pl3        1 UNL1     -0.3170
     16 C         6.053449   -1.309686   -4.446285 C.3        1 UNL1     0.1275
     17 N         4.943194   -0.592107   -5.17439 N.2        1 UNL1     -0.2557
     18 C         5.692617   -2.791724   -4.478897 C.3        1 UNL1     0.0016
     19 C         6.908858   -3.597892   -4.051764 C.3        1 UNL1     0.0026
     20 N         7.297963   -3.18274   -2.71114 N.3        1 UNL1     -0.3018
     21 C         7.605114   -1.758325   -2.565986 C.3        1 UNL1     0.0026
     22 C         6.368304   -0.967568   -2.995985 C.3        1 UNL1     0.0016
     23 C         8.249671   -4.085735   -2.095108 C.3        1 UNL1     0.0012
     24 C         7.575632   -5.42167   -1.744811 C.3        1 UNL1     -0.0339
     25 C         8.298068   -6.606627   -2.406641 C.3        1 UNL1     -0.0615
     26 C         7.49769   -5.586045   -0.236937 C.3        1 UNL1     -0.0615
     27 C         4.840934   0.442284   -10.04079 C.ar        1 UNL1     0.1347
     28 C         3.577435   1.00586   -10.042624 C.ar        1 UNL1     0.0342
     29 C         3.000539   1.152255   -8.763201 C.ar        1 UNL1     0.1435
     30 C         3.63001   0.719711   -7.595344 C.ar        1 UNL1     0.0774
     31 O         1.729355   1.582509   -8.608343 O.3        1 UNL1     -0.4436
     32 C         1.360387   1.155926   -7.288205 C.3        1 UNL1     0.3143
     33 C         2.670435   0.989563   -6.545029 C.2        1 UNL1     0.2504
     34 C         2.744757   1.299525   -11.259386 C.3        1 UNL1     -0.0327
     35 O         0.664154   2.243972   -6.66799 O.2        1 UNL1     -0.4528
     36 C         -1.793226   0.661505   -4.246179 C.3        1 UNL1     0.0854
     37 C         -1.5152   -0.323172   -3.045914 C.3        1 UNL1     0.0236
     38 C         -2.086672   0.161285   -1.628006 C.3        1 UNL1     0.1131
     39 C         -1.761784   1.619183   -1.107187 C.3        1 UNL1     0.0200
     40 C         -0.222032   2.244311   -1.251474 C.3        1 UNL1     0.0661
     41 C         1.212546   1.4708   -0.781075 C.3        1 UNL1     0.0091
     42 C         2.901774   1.56241   -1.490666 C.3        1 UNL1     0.0661
     43 C         6.763916   -0.742292   -8.960712 C.2        1 UNL1     0.2131
     44 O         7.199398   -1.244218   -9.981085 O.2        1 UNL1     -0.2851
     45 O         5.538516   0.334094   -11.242086 O.3        1 UNL1     -0.5056
     46 O         2.879136   1.081275   -5.355959 O.2        1 UNL1     -0.2836
     47 C         4.209124   3.823612   -2.034374 C.3        1 UNL1     -0.0566
     48 O         3.565606   1.756037   -0.178815 O.3        1 UNL1     -0.3909
     49 C         0.918596   0.008784   -0.528889 C.3        1 UNL1     -0.0577
     50 O         -0.047651   2.861332   -2.511077 O.3        1 UNL1     -0.3910
     51 O         -2.347151   1.911364   -3.902015 O.3        1 UNL1     -0.3753
     52 C         -0.128872   -1.032933   -3.18478 C.3        1 UNL1     -0.0564
     53 O         -2.124713   -0.92483   -0.593002 O.3        1 UNL1     -0.4608
     54 C         -2.162896   -0.730056   0.762924 C.2        1 UNL1     0.3042
     55 O         -1.232566   -0.842915   1.56016 O.2        1 UNL1     -0.2512
     56 C         -3.502844   -0.275715   1.267729 C.3        1 UNL1     0.0332
     57 C         -2.989471   2.560838   -1.512456 C.3        1 UNL1     -0.0567
     58 C         0.696876   -0.231963   -7.446467 C.3        1 UNL1     0.0210
     59 C         -3.122776   2.526621   -4.929502 C.3        1 UNL1     0.0372
     60 C         -0.618903   0.937818   -5.117831 C.2        1 UNL1     -0.0208
     61 C         -0.165673   2.087794   -5.618713 C.2        1 UNL1     0.0882
     62 H         3.591499   2.293813   -3.399135 H        1 UNL1     0.0365
     63 H         5.214766   2.128411   -4.627091 H        1 UNL1     0.0576
     64 H         7.817274   1.851778   -3.00007 H        1 UNL1     0.0615
     65 H         7.20111   1.746101   -6.060631 H        1 UNL1     0.0622
     66 H         -2.518521   0.1292   -4.877563 H        1 UNL1     0.0645
     67 H         -2.161346   -1.192837   -3.257425 H        1 UNL1     0.0362
     68 H         -3.163566   0.165995   -1.855603 H        1 UNL1     0.0741
     69 H         -1.932494   1.653404   -0.039435 H        1 UNL1     0.0359
     70 H         -0.290848   3.087384   -0.537643 H        1 UNL1     0.0600
     71 H         1.308701   1.854456   0.253585 H        1 UNL1     0.0348
     72 H         2.371352   2.454491   -1.854205 H        1 UNL1     0.0602
     73 H         -0.193994   0.017456   -5.433479 H        1 UNL1     0.0628
     74 H         -0.507222   3.074547   -5.304229 H        1 UNL1     0.1022
     75 H         10.789809   0.686965   -4.410144 H        1 UNL1     0.0279
     76 H         10.877214   -0.389647   -5.746769 H        1 UNL1     0.0279
     77 H         11.353958   1.350534   -5.88742 H        1 UNL1     0.0279
     78 H         9.118855   -1.317709   -6.744789 H        1 UNL1     0.1553
     79 H         8.115728   -1.486186   -5.044325 H        1 UNL1     0.1484
     80 H         4.840957   -2.96713   -3.810561 H        1 UNL1     0.0317
     81 H         5.371818   -3.094372   -5.481466 H        1 UNL1     0.0317
     82 H         7.742883   -3.482471   -4.759571 H        1 UNL1     0.0428
     83 H         6.630132   -4.651615   -4.083857 H        1 UNL1     0.0428
     84 H         7.816467   -1.458028   -1.534985 H        1 UNL1     0.0428
     85 H         8.513337   -1.477764   -3.117106 H        1 UNL1     0.0428
     86 H         6.580355   0.05688   -2.752002 H        1 UNL1     0.0317
     87 H         5.521031   -1.21353   -2.344274 H        1 UNL1     0.0317
     88 H         9.05393   -4.278782   -2.817046 H        1 UNL1     0.0429
     89 H         8.714072   -3.632413   -1.209893 H        1 UNL1     0.0429
     90 H         6.537843   -5.403915   -2.098211 H        1 UNL1     0.0308
     91 H         9.382429   -6.531346   -2.28176 H        1 UNL1     0.0233
     92 H         7.953366   -7.553637   -1.984786 H        1 UNL1     0.0233
     93 H         8.105224   -6.663925   -3.484771 H        1 UNL1     0.0233
     94 H         7.392632   -6.645018   0.022631 H        1 UNL1     0.0233
     95 H         8.415532   -5.214599   0.227343 H        1 UNL1     0.0233
     96 H         6.645808   -5.041818   0.180295 H        1 UNL1     0.0233
     97 H         1.743442   1.628681   -10.998132 H        1 UNL1     0.0280
     98 H         3.175145   2.103003   -11.871305 H        1 UNL1     0.0280
     99 H         2.659561   0.390147   -11.876532 H        1 UNL1     0.0280
     100 H         5.045205   -0.044209   -11.948595 H        1 UNL1     0.2922
     101 H         3.274976   4.005438   -1.503371 H        1 UNL1     0.0236
     102 H         4.37402   4.547655   -2.83159 H        1 UNL1     0.0236
     103 H         4.998035   4.036533   -1.293782 H        1 UNL1     0.0236
     104 H         3.588811   2.716271   0.001135 H        1 UNL1     0.2098
     105 H         0.789326   -0.585276   -1.430107 H        1 UNL1     0.0234
     106 H         1.612031   -0.484211   0.152309 H        1 UNL1     0.0234
     107 H         0.0   0.0   0.0 H        1 UNL1     0.0234
     108 H         -0.05957   2.154246   -3.184616 H        1 UNL1     0.2098
     109 H         0.702964   -0.316082   -3.228194 H        1 UNL1     0.0234
     110 H         0.060355   -1.766318   -2.393526 H        1 UNL1     0.0234
     111 H         -0.065113   -1.618712   -4.111465 H        1 UNL1     0.0234
     112 H         -3.459355   -0.119262   2.349846 H        1 UNL1     0.0342
     113 H         -3.850339   0.621059   0.756957 H        1 UNL1     0.0342
     114 H         -4.231943   -1.073981   1.071896 H        1 UNL1     0.0342
     115 H         -3.95026   2.145808   -1.178055 H        1 UNL1     0.0234
     116 H         -2.917063   3.577616   -1.121342 H        1 UNL1     0.0234
     117 H         -3.153066   2.625872   -2.601928 H        1 UNL1     0.0234
     118 H         -0.399309   -0.183872   -7.323697 H        1 UNL1     0.0309
     119 H         0.929504   -0.712947   -8.401842 H        1 UNL1     0.0309
     120 H         1.007469   -0.937577   -6.66817 H        1 UNL1     0.0309
     121 H         -3.101523   3.602656   -4.75905 H        1 UNL1     0.0524
     122 H         -2.708104   2.341441   -5.934386 H        1 UNL1     0.0524
     123 H         -4.145642   2.16218   -4.897519 H        1 UNL1     0.0524
@<TRIPOS>BOND
     1     1     2    1
     2     1    42    1
     3     2     3    2
     4     3     4    1
     5     4     5    2
     6     5     7    1
     7     6    75    1
     8     6    76    1
     9     6    77    1
    10     7     9   am
    11     9    10    1
    12    10    11    2
    13    10    43    1
    14    11    14    1
    15    11    15    1
    16    12    13   ar
    17    12    27   ar
    18    12    43    1
    19    13    14    1
    20    13    30   ar
    21    14    17    2
    22    15    16    1
    23    16    17    1
    24    16    18    1
    25    16    22    1
    26    18    19    1
    27    19    20    1
    28    20    21    1
    29    21    22    1
    30    23    24    1
    31    23    88    1
    32    23    89    1
    33    24    25    1
    34    24    26    1
    35    24    90    1
    36    25    91    1
    37    25    92    1
    38    25    93    1
    39    26    94    1
    40    26    95    1
    41    26    96    1
    42    27    28   ar
    43    28    29   ar
    44    29    30   ar
    45    29    31    1
    46    30    33    1
    47    31    32    1
    48    32    33    1
    49    32    35    1
    50    34    97    1
    51    34    98    1
    52    34    99    1
    53    35    61    1
    54    36    37    1
    55    36    60    1
    56    37    38    1
    57    38    39    1
    58    39    40    1
    59    40    41    1
    60    41    42    1
    61    45   100    1
    62    47   101    1
    63    47   102    1
    64    47   103    1
    65    48   104    1
    66    49   105    1
    67    49   106    1
    68    49   107    1
    69    50   108    1
    70    51    59    1
    71    52   109    1
    72    52   110    1
    73    52   111    1
    74    53    54    1
    75    54    55    2
    76    54    56    1
    77    56   112    1
    78    56   113    1
    79    56   114    1
    80    57   115    1
    81    57   116    1
    82    57   117    1
    83    58   118    1
    84    58   119    1
    85    58   120    1
    86    59   121    1
    87    59   122    1
    88    59   123    1
    89    60    61    2
    90     1    47    1
    91     1    62    1
    92     2    63    1
    93     3    64    1
    94     4    65    1
    95     5     6    1
    96     7     8    2
    97     9    78    1
    98    15    79    1
    99    18    80    1
   100    18    81    1
   101    19    82    1
   102    19    83    1
   103    20    23    1
   104    21    84    1
   105    21    85    1
   106    22    86    1
   107    22    87    1
   108    27    45    1
   109    28    34    1
   110    32    58    1
   111    33    46    2
   112    36    51    1
   113    36    66    1
   114    37    52    1
   115    37    67    1
   116    38    53    1
   117    38    68    1
   118    42    48    1
   119    42    72    1
   120    43    44    2
   121    60    73    1
   122    61    74    1
   123    39    69    1
   124    39    57    1
   125    40    70    1
   126    40    50    1
   127    41    71    1
   128    41    49    1
