@<TRIPOS>MOLECULE
*****
 123 128 0 0 0
SMALL
GASTEIGER

@<TRIPOS>ATOM
     1 C         4.325797   2.635717   -2.086199 C.3        1 UNL1     0.0009
     2 C         5.392473   2.890667   -3.580937 C.2        1 UNL1     -0.0787
     3 C         6.619451   2.637278   -4.306448 C.2        1 UNL1     -0.0649
     4 C         7.017694   3.122347   -5.878856 C.2        1 UNL1     -0.0542
     5 C         7.861665   2.878729   -6.99036 C.2        1 UNL1     0.0115
     6 C         9.116045   2.096698   -7.46815 C.3        1 UNL1     -0.0348
     7 C         7.443082   3.461944   -8.4262 C.2        1 UNL1     0.2441
     8 O         7.952366   4.462396   -8.912256 O.2        1 UNL1     -0.2702
     9 N         6.642986   2.603452   -9.200144 N.am        1 UNL1     -0.2772
     10 C         5.311532   2.799981   -8.913912 C.2        1 UNL1     0.1049
     11 C         4.845428   2.169466   -7.85117 C.2        1 UNL1     0.0801
     12 C         3.579883   4.587328   -8.660696 C.ar        1 UNL1     0.0753
     13 C         3.251019   3.98171   -7.40623 C.ar        1 UNL1     0.0305
     14 C         3.784549   2.676358   -7.023539 C.2        1 UNL1     0.0924
     15 N         5.40208   1.194763   -7.111833 N.pl3        1 UNL1     -0.3170
     16 C         4.412394   0.734922   -6.174111 C.3        1 UNL1     0.1275
     17 N         3.513465   1.927816   -5.958117 N.2        1 UNL1     -0.2557
     18 C         3.563147   -0.311257   -6.889647 C.3        1 UNL1     0.0016
     19 C         4.479996   -1.401935   -7.420118 C.3        1 UNL1     0.0026
     20 N         5.203252   -1.990194   -6.301244 N.3        1 UNL1     -0.3018
     21 C         6.00156   -1.048933   -5.513145 C.3        1 UNL1     0.0026
     22 C         5.05992   0.035347   -4.986318 C.3        1 UNL1     0.0016
     23 C         5.873339   -3.226956   -6.650595 C.3        1 UNL1     0.0012
     24 C         4.854484   -4.367515   -6.801649 C.3        1 UNL1     -0.0339
     25 C         5.443486   -5.712013   -6.343981 C.3        1 UNL1     -0.0615
     26 C         3.57966   -4.030223   -6.0481 C.3        1 UNL1     -0.0615
     27 C         2.974232   5.772752   -9.070667 C.ar        1 UNL1     0.1347
     28 C         2.000159   6.421181   -8.33258 C.ar        1 UNL1     0.0342
     29 C         1.72792   5.833138   -7.079084 C.ar        1 UNL1     0.1435
     30 C         2.352993   4.665648   -6.639229 C.ar        1 UNL1     0.0774
     31 O         0.72662   6.283479   -6.291938 O.3        1 UNL1     -0.4436
     32 C         0.455955   5.197711   -5.392649 C.3        1 UNL1     0.3143
     33 C         1.731852   4.380768   -5.362595 C.2        1 UNL1     0.2504
     34 C         1.131389   7.548501   -8.816821 C.3        1 UNL1     -0.0327
     35 O         0.289191   5.759204   -4.084916 O.2        1 UNL1     -0.4528
     36 C         -2.128519   3.465341   -2.268062 C.3        1 UNL1     0.0854
     37 C         -2.013087   1.917718   -1.986882 C.3        1 UNL1     0.0236
     38 C         -2.141104   1.499733   -0.443949 C.3        1 UNL1     0.1131
     39 C         -1.253043   2.228804   0.643282 C.3        1 UNL1     0.0200
     40 C         0.36167   2.52936   0.352068 C.3        1 UNL1     0.0661
     41 C         1.498695   1.398856   -0.201778 C.3        1 UNL1     0.0091
     42 C         2.974805   1.620332   -1.268292 C.3        1 UNL1     0.0661
     43 C         4.521473   3.864086   -9.55097 C.2        1 UNL1     0.2131
     44 O         4.583206   4.043942   -10.753708 O.2        1 UNL1     -0.2851
     45 O         3.384037   6.320274   -10.284635 O.3        1 UNL1     -0.5056
     46 O         2.152036   3.671944   -4.475539 O.2        1 UNL1     -0.2836
     47 C         4.87238   3.456593   -0.887287 C.3        1 UNL1     -0.0566
     48 O         3.870968   0.83391   -0.386506 O.3        1 UNL1     -0.3909
     49 C         0.765035   0.178509   -0.711671 C.3        1 UNL1     -0.0577
     50 O         0.528024   3.755947   -0.330232 O.3        1 UNL1     -0.3910
     51 O         -2.153457   4.29794   -1.130702 O.3        1 UNL1     -0.3753
     52 C         -0.998981   1.224628   -2.954438 C.3        1 UNL1     -0.0564
     53 O         -2.379943   0.032607   -0.237012 O.3        1 UNL1     -0.4608
     54 C         -1.855166   -0.722907   0.778733 C.2        1 UNL1     0.3042
     55 O         -0.909583   -1.50748   0.714261 O.2        1 UNL1     -0.2512
     56 C         -2.512688   -0.483313   2.108009 C.3        1 UNL1     0.0332
     57 C         -2.130217   3.410998   1.26871 C.3        1 UNL1     -0.0567
     58 C         -0.661316   4.353951   -6.049388 C.3        1 UNL1     0.0210
     59 C         -1.35311   5.474842   -1.231751 C.3        1 UNL1     0.0372
     60 C         -1.091401   4.01757   -3.181621 C.2        1 UNL1     -0.0208
     61 C         -0.358906   5.128091   -3.087091 C.2        1 UNL1     0.0882
     62 H         3.550086   3.250378   -2.558613 H        1 UNL1     0.0365
     63 H         4.791407   3.611239   -4.139476 H        1 UNL1     0.0576
     64 H         7.369414   1.935252   -3.935202 H        1 UNL1     0.0615
     65 H         6.25979   3.872638   -6.119951 H        1 UNL1     0.0622
     66 H         -3.086129   3.579409   -2.795337 H        1 UNL1     0.0645
     67 H         -2.944612   1.498931   -2.405735 H        1 UNL1     0.0362
     68 H         -3.17231   1.8313   -0.248501 H        1 UNL1     0.0741
     69 H         -1.223313   1.617435   1.535332 H        1 UNL1     0.0359
     70 H         0.705873   2.73753   1.383209 H        1 UNL1     0.0600
     71 H         1.889975   1.028256   0.765958 H        1 UNL1     0.0348
     72 H         2.731907   2.618383   -0.875594 H        1 UNL1     0.0602
     73 H         -1.067551   3.440388   -4.072431 H        1 UNL1     0.0628
     74 H         -0.283036   5.742182   -2.189108 H        1 UNL1     0.1022
     75 H         9.948645   2.203497   -6.731668 H        1 UNL1     0.0279
     76 H         9.012623   1.017024   -7.549864 H        1 UNL1     0.0279
     77 H         9.568926   2.530406   -8.371752 H        1 UNL1     0.0279
     78 H         6.864683   1.635434   -8.976833 H        1 UNL1     0.1553
     79 H         6.159344   0.618143   -7.429628 H        1 UNL1     0.1484
     80 H         2.825552   -0.71532   -6.185763 H        1 UNL1     0.0317
     81 H         2.997406   0.139765   -7.711942 H        1 UNL1     0.0317
     82 H         5.174138   -1.015863   -8.181057 H        1 UNL1     0.0428
     83 H         3.854223   -2.136374   -7.928111 H        1 UNL1     0.0428
     84 H         6.47001   -1.500617   -4.633174 H        1 UNL1     0.0428
     85 H         6.846939   -0.647747   -6.089079 H        1 UNL1     0.0428
     86 H         5.648859   0.626652   -4.309933 H        1 UNL1     0.0317
     87 H         4.299348   -0.412831   -4.335347 H        1 UNL1     0.0317
     88 H         6.37968   -3.08081   -7.613692 H        1 UNL1     0.0429
     89 H         6.647582   -3.482363   -5.915687 H        1 UNL1     0.0429
     90 H         4.565427   -4.453661   -7.855802 H        1 UNL1     0.0308
     91 H         5.96353   -5.613082   -5.386448 H        1 UNL1     0.0233
     92 H         4.658154   -6.465615   -6.249395 H        1 UNL1     0.0233
     93 H         6.169612   -6.115293   -7.06018 H        1 UNL1     0.0233
     94 H         2.975997   -4.932822   -5.904076 H        1 UNL1     0.0233
     95 H         3.8244   -3.627336   -5.061314 H        1 UNL1     0.0233
     96 H         2.978258   -3.295141   -6.590262 H        1 UNL1     0.0233
     97 H         0.075172   7.303236   -8.757823 H        1 UNL1     0.0280
     98 H         1.262456   8.458866   -8.217394 H        1 UNL1     0.0280
     99 H         1.374912   7.777078   -9.867318 H        1 UNL1     0.0280
     100 H         4.316856   6.389833   -10.387744 H        1 UNL1     0.2922
     101 H         4.084927   3.594503   -0.146642 H        1 UNL1     0.0236
     102 H         5.323547   4.402374   -1.185501 H        1 UNL1     0.0236
     103 H         5.672178   2.921076   -0.349015 H        1 UNL1     0.0236
     104 H         3.63027   1.039966   0.537927 H        1 UNL1     0.2098
     105 H         0.292653   0.311222   -1.68175 H        1 UNL1     0.0234
     106 H         1.348317   -0.742105   -0.698301 H        1 UNL1     0.0234
     107 H         0.0   -0.0   0.0 H        1 UNL1     0.0234
     108 H         1.441937   3.775068   -0.673983 H        1 UNL1     0.2098
     109 H         -1.288501   1.334539   -4.008862 H        1 UNL1     0.0234
     110 H         0.03101   1.57185   -2.819166 H        1 UNL1     0.0234
     111 H         -0.941258   0.143064   -2.77324 H        1 UNL1     0.0234
     112 H         -2.69482   -1.438082   2.610591 H        1 UNL1     0.0342
     113 H         -1.929045   0.185288   2.739022 H        1 UNL1     0.0342
     114 H         -3.485981   -0.006261   1.928326 H        1 UNL1     0.0342
     115 H         -1.910973   3.562288   2.334652 H        1 UNL1     0.0234
     116 H         -2.001565   4.372318   0.767352 H        1 UNL1     0.0234
     117 H         -3.210231   3.186651   1.303042 H        1 UNL1     0.0234
     118 H         -1.637749   4.503057   -5.556081 H        1 UNL1     0.0309
     119 H         -0.769171   4.544166   -7.121949 H        1 UNL1     0.0309
     120 H         -0.489131   3.27681   -5.94826 H        1 UNL1     0.0309
     121 H         -0.347137   5.2189   -0.900287 H        1 UNL1     0.0524
     122 H         -1.277613   5.841661   -2.26895 H        1 UNL1     0.0524
     123 H         -1.764032   6.26352   -0.607874 H        1 UNL1     0.0524
@<TRIPOS>BOND
     1     1     2    1
     2     1    42    1
     3     2     3    2
     4     3     4    1
     5     4     5    2
     6     5     7    1
     7     6    75    1
     8     6    76    1
     9     6    77    1
    10     7     9   am
    11     9    10    1
    12    10    11    2
    13    10    43    1
    14    11    14    1
    15    11    15    1
    16    12    13   ar
    17    12    27   ar
    18    12    43    1
    19    13    14    1
    20    13    30   ar
    21    14    17    2
    22    15    16    1
    23    16    17    1
    24    16    18    1
    25    16    22    1
    26    18    19    1
    27    19    20    1
    28    20    21    1
    29    21    22    1
    30    23    24    1
    31    23    88    1
    32    23    89    1
    33    24    25    1
    34    24    26    1
    35    24    90    1
    36    25    91    1
    37    25    92    1
    38    25    93    1
    39    26    94    1
    40    26    95    1
    41    26    96    1
    42    27    28   ar
    43    28    29   ar
    44    29    30   ar
    45    29    31    1
    46    30    33    1
    47    31    32    1
    48    32    33    1
    49    32    35    1
    50    34    97    1
    51    34    98    1
    52    34    99    1
    53    35    61    1
    54    36    37    1
    55    36    60    1
    56    37    38    1
    57    38    39    1
    58    39    40    1
    59    40    41    1
    60    41    42    1
    61    45   100    1
    62    47   101    1
    63    47   102    1
    64    47   103    1
    65    48   104    1
    66    49   105    1
    67    49   106    1
    68    49   107    1
    69    50   108    1
    70    51    59    1
    71    52   109    1
    72    52   110    1
    73    52   111    1
    74    53    54    1
    75    54    55    2
    76    54    56    1
    77    56   112    1
    78    56   113    1
    79    56   114    1
    80    57   115    1
    81    57   116    1
    82    57   117    1
    83    58   118    1
    84    58   119    1
    85    58   120    1
    86    59   121    1
    87    59   122    1
    88    59   123    1
    89    60    61    2
    90     1    47    1
    91     1    62    1
    92     2    63    1
    93     3    64    1
    94     4    65    1
    95     5     6    1
    96     7     8    2
    97     9    78    1
    98    15    79    1
    99    18    80    1
   100    18    81    1
   101    19    82    1
   102    19    83    1
   103    20    23    1
   104    21    84    1
   105    21    85    1
   106    22    86    1
   107    22    87    1
   108    27    45    1
   109    28    34    1
   110    32    58    1
   111    33    46    2
   112    36    51    1
   113    36    66    1
   114    37    52    1
   115    37    67    1
   116    38    53    1
   117    38    68    1
   118    42    48    1
   119    42    72    1
   120    43    44    2
   121    60    73    1
   122    61    74    1
   123    39    69    1
   124    39    57    1
   125    40    70    1
   126    40    50    1
   127    41    71    1
   128    41    49    1
