@<TRIPOS>MOLECULE
*****
 123 128 0 0 0
SMALL
GASTEIGER

@<TRIPOS>ATOM
     1 C         4.987304   2.203537   0.530399 C.3        1 UNL1     0.0009
     2 C         6.386063   3.061034   -0.332855 C.2        1 UNL1     -0.0787
     3 C         7.700029   3.022544   -0.939533 C.2        1 UNL1     -0.0649
     4 C         8.501163   4.263851   -1.766395 C.2        1 UNL1     -0.0542
     5 C         9.533158   4.567208   -2.68837 C.2        1 UNL1     0.0115
     6 C         10.748269   3.975056   -3.453996 C.3        1 UNL1     -0.0348
     7 C         9.527927   5.997427   -3.417368 C.2        1 UNL1     0.2441
     8 O         10.26069   6.917861   -3.082129 O.2        1 UNL1     -0.2702
     9 N         8.815642   6.038513   -4.628612 N.am        1 UNL1     -0.2772
     10 C         7.491798   6.333982   -4.397405 C.2        1 UNL1     0.1049
     11 C         6.720233   5.318663   -4.053839 C.2        1 UNL1     0.0801
     12 C         5.998883   7.930188   -3.180579 C.ar        1 UNL1     0.0753
     13 C         5.320125   6.780215   -2.665351 C.ar        1 UNL1     0.0305
     14 C         5.5772   5.440997   -3.190192 C.2        1 UNL1     0.0924
     15 N         6.963295   3.997312   -4.092323 N.pl3        1 UNL1     -0.3170
     16 C         5.736739   3.315475   -3.774654 C.3        1 UNL1     0.1275
     17 N         4.977761   4.288339   -2.905625 N.2        1 UNL1     -0.2557
     18 C         4.93913   3.192876   -5.069448 C.3        1 UNL1     0.0016
     19 C         5.799418   2.487327   -6.105641 C.3        1 UNL1     0.0026
     20 N         6.169238   1.175723   -5.591873 N.3        1 UNL1     -0.3018
     21 C         6.887545   1.187747   -4.31584 C.3        1 UNL1     0.0026
     22 C         6.003293   1.896914   -3.288671 C.3        1 UNL1     0.0016
     23 C         6.73137   0.309626   -6.608989 C.3        1 UNL1     0.0012
     24 C         5.646481   -0.122779   -7.607887 C.3        1 UNL1     -0.0339
     25 C         5.892151   -1.550974   -8.121658 C.3        1 UNL1     -0.0615
     26 C         4.272157   0.015411   -6.976289 C.3        1 UNL1     -0.0615
     27 C         5.662461   9.215056   -2.760994 C.ar        1 UNL1     0.1347
     28 C         4.642003   9.476914   -1.864252 C.ar        1 UNL1     0.0342
     29 C         4.020455   8.326664   -1.333436 C.ar        1 UNL1     0.1435
     30 C         4.371296   7.031731   -1.717207 C.ar        1 UNL1     0.0774
     31 O         2.936565   8.417535   -0.53223 O.3        1 UNL1     -0.4436
     32 C         2.330281   7.117714   -0.593522 C.3        1 UNL1     0.3143
     33 C         3.447683   6.17814   -0.999509 C.2        1 UNL1     0.2504
     34 C         4.06051   10.829622   -1.560693 C.3        1 UNL1     -0.0327
     35 O         1.950116   6.76163   0.741369 O.2        1 UNL1     -0.4528
     36 C         -1.094447   4.521555   0.393826 C.3        1 UNL1     0.0854
     37 C         -1.250278   3.168478   -0.401425 C.3        1 UNL1     0.0236
     38 C         -1.775032   1.928846   0.470178 C.3        1 UNL1     0.1131
     39 C         -1.065141   1.574918   1.838776 C.3        1 UNL1     0.0200
     40 C         0.598922   1.582078   1.954007 C.3        1 UNL1     0.0661
     41 C         1.671788   0.807311   0.892733 C.3        1 UNL1     0.0091
     42 C         3.365438   1.272556   0.36311 C.3        1 UNL1     0.0661
     43 C         7.012231   7.715506   -4.243263 C.2        1 UNL1     0.2131
     44 O         7.365272   8.582754   -5.02171 O.2        1 UNL1     -0.2851
     45 O         6.402624   10.276738   -3.277161 O.3        1 UNL1     -0.5056
     46 O         3.560941   4.995905   -0.764251 O.2        1 UNL1     -0.2836
     47 C         5.354549   1.932313   2.014161 C.3        1 UNL1     -0.0566
     48 O         3.929223   -0.081187   0.583658 O.3        1 UNL1     -0.3909
     49 C         0.916688   0.398851   -0.352449 C.3        1 UNL1     -0.0577
     50 O         1.074414   2.877075   2.261601 O.3        1 UNL1     -0.3910
     51 O         -1.263689   4.438023   1.790898 O.3        1 UNL1     -0.3753
     52 C         -0.145604   3.006463   -1.496137 C.3        1 UNL1     -0.0564
     53 O         -2.245661   0.768981   -0.3578 O.3        1 UNL1     -0.4608
     54 C         -2.547977   -0.478943   0.120969 C.2        1 UNL1     0.3042
     55 O         -1.850494   -1.490796   0.061719 O.2        1 UNL1     -0.2512
     56 C         -3.867042   -0.545174   0.836787 C.3        1 UNL1     0.0332
     57 C         -1.896336   2.279559   3.009575 C.3        1 UNL1     -0.0567
     58 C         1.287408   7.174831   -1.733997 C.3        1 UNL1     0.0210
     59 C         -2.474757   5.0097   2.283204 C.3        1 UNL1     0.0372
     60 C         0.184682   5.245301   0.158915 C.2        1 UNL1     -0.0208
     61 C         1.017305   5.831077   1.020512 C.2        1 UNL1     0.0882
     62 H         4.425358   3.145166   0.514192 H        1 UNL1     0.0365
     63 H         6.026038   4.091975   -0.329375 H        1 UNL1     0.0576
     64 H         8.248269   2.085345   -1.058689 H        1 UNL1     0.0615
     65 H         7.92244   5.157824   -1.518655 H        1 UNL1     0.0622
     66 H         -1.885786   5.170261   -0.007433 H        1 UNL1     0.0645
     67 H         -2.111064   3.347446   -1.068942 H        1 UNL1     0.0362
     68 H         -2.770791   2.30725   0.747299 H        1 UNL1     0.0741
     69 H         -1.317148   0.558063   2.108787 H        1 UNL1     0.0359
     70 H         0.727521   1.009993   2.892752 H        1 UNL1     0.0600
     71 H         1.783681   -0.166805   1.408035 H        1 UNL1     0.0348
     72 H         3.17456   1.829206   1.292099 H        1 UNL1     0.0602
     73 H         0.331294   5.365321   -0.885761 H        1 UNL1     0.0628
     74 H         0.97024   5.709464   2.103209 H        1 UNL1     0.1022
     75 H         11.401086   3.390842   -2.761494 H        1 UNL1     0.0279
     76 H         10.524244   3.249456   -4.232704 H        1 UNL1     0.0279
     77 H         11.445459   4.748348   -3.808461 H        1 UNL1     0.0279
     78 H         8.851881   5.125852   -5.07785 H        1 UNL1     0.1553
     79 H         7.689644   3.580476   -4.645133 H        1 UNL1     0.1484
     80 H         4.015779   2.636018   -4.869204 H        1 UNL1     0.0317
     81 H         4.636785   4.179114   -5.43765 H        1 UNL1     0.0317
     82 H         6.691233   3.077038   -6.364137 H        1 UNL1     0.0428
     83 H         5.212186   2.412072   -7.021363 H        1 UNL1     0.0428
     84 H         7.08293   0.189052   -3.913045 H        1 UNL1     0.0428
     85 H         7.885897   1.636277   -4.412951 H        1 UNL1     0.0428
     86 H         6.498309   1.770069   -2.34376 H        1 UNL1     0.0317
     87 H         5.063799   1.345887   -3.15899 H        1 UNL1     0.0317
     88 H         7.500758   0.874499   -7.151444 H        1 UNL1     0.0429
     89 H         7.22738   -0.561284   -6.16148 H        1 UNL1     0.0429
     90 H         5.65292   0.562222   -8.46401 H        1 UNL1     0.0308
     91 H         6.133898   -2.232842   -7.300855 H        1 UNL1     0.0233
     92 H         5.014687   -1.92654   -8.653276 H        1 UNL1     0.0233
     93 H         6.725408   -1.601357   -8.83298 H        1 UNL1     0.0233
     94 H         3.5521   -0.627325   -7.494212 H        1 UNL1     0.0233
     95 H         4.309401   -0.296008   -5.928628 H        1 UNL1     0.0233
     96 H         3.912342   1.046961   -7.025336 H        1 UNL1     0.0233
     97 H         3.009515   10.890431   -1.827043 H        1 UNL1     0.0280
     98 H         4.114105   11.072629   -0.491426 H        1 UNL1     0.0280
     99 H         4.605963   11.601532   -2.127907 H        1 UNL1     0.0280
     100 H         7.335616   10.16302   -3.230075 H        1 UNL1     0.2922
     101 H         4.830629   2.638774   2.657649 H        1 UNL1     0.0236
     102 H         6.428639   1.931713   2.196683 H        1 UNL1     0.0236
     103 H         5.011738   0.939685   2.350856 H        1 UNL1     0.0236
     104 H         3.84296   -0.576715   -0.254185 H        1 UNL1     0.2098
     105 H         0.685092   1.219542   -1.02672 H        1 UNL1     0.0234
     106 H         1.361977   -0.429052   -0.90401 H        1 UNL1     0.0234
     107 H         0.0   -0.0   0.0 H        1 UNL1     0.0234
     108 H         2.036751   2.879862   2.095262 H        1 UNL1     0.2098
     109 H         -0.182692   3.808581   -2.246432 H        1 UNL1     0.0234
     110 H         0.865649   2.939911   -1.080586 H        1 UNL1     0.0234
     111 H         -0.265358   2.069611   -2.056416 H        1 UNL1     0.0234
     112 H         -4.037141   -1.559442   1.210514 H        1 UNL1     0.0342
     113 H         -3.932765   0.184292   1.642642 H        1 UNL1     0.0342
     114 H         -4.661686   -0.31498   0.113796 H        1 UNL1     0.0342
     115 H         -1.358509   2.249845   3.967201 H        1 UNL1     0.0234
     116 H         -2.150715   3.322021   2.808049 H        1 UNL1     0.0234
     117 H         -2.826584   1.746417   3.270993 H        1 UNL1     0.0234
     118 H         0.252412   7.132826   -1.351864 H        1 UNL1     0.0309
     119 H         1.397668   8.056551   -2.373227 H        1 UNL1     0.0309
     120 H         1.34582   6.307636   -2.400829 H        1 UNL1     0.0309
     121 H         -2.303091   5.305212   3.317883 H        1 UNL1     0.0524
     122 H         -2.768198   5.913752   1.724079 H        1 UNL1     0.0524
     123 H         -3.281751   4.284464   2.229478 H        1 UNL1     0.0524
@<TRIPOS>BOND
     1     1     2    1
     2     1    42    1
     3     2     3    2
     4     3     4    1
     5     4     5    2
     6     5     7    1
     7     6    75    1
     8     6    76    1
     9     6    77    1
    10     7     9   am
    11     9    10    1
    12    10    11    2
    13    10    43    1
    14    11    14    1
    15    11    15    1
    16    12    13   ar
    17    12    27   ar
    18    12    43    1
    19    13    14    1
    20    13    30   ar
    21    14    17    2
    22    15    16    1
    23    16    17    1
    24    16    18    1
    25    16    22    1
    26    18    19    1
    27    19    20    1
    28    20    21    1
    29    21    22    1
    30    23    24    1
    31    23    88    1
    32    23    89    1
    33    24    25    1
    34    24    26    1
    35    24    90    1
    36    25    91    1
    37    25    92    1
    38    25    93    1
    39    26    94    1
    40    26    95    1
    41    26    96    1
    42    27    28   ar
    43    28    29   ar
    44    29    30   ar
    45    29    31    1
    46    30    33    1
    47    31    32    1
    48    32    33    1
    49    32    35    1
    50    34    97    1
    51    34    98    1
    52    34    99    1
    53    35    61    1
    54    36    37    1
    55    36    60    1
    56    37    38    1
    57    38    39    1
    58    39    40    1
    59    40    41    1
    60    41    42    1
    61    45   100    1
    62    47   101    1
    63    47   102    1
    64    47   103    1
    65    48   104    1
    66    49   105    1
    67    49   106    1
    68    49   107    1
    69    50   108    1
    70    51    59    1
    71    52   109    1
    72    52   110    1
    73    52   111    1
    74    53    54    1
    75    54    55    2
    76    54    56    1
    77    56   112    1
    78    56   113    1
    79    56   114    1
    80    57   115    1
    81    57   116    1
    82    57   117    1
    83    58   118    1
    84    58   119    1
    85    58   120    1
    86    59   121    1
    87    59   122    1
    88    59   123    1
    89    60    61    2
    90     1    47    1
    91     1    62    1
    92     2    63    1
    93     3    64    1
    94     4    65    1
    95     5     6    1
    96     7     8    2
    97     9    78    1
    98    15    79    1
    99    18    80    1
   100    18    81    1
   101    19    82    1
   102    19    83    1
   103    20    23    1
   104    21    84    1
   105    21    85    1
   106    22    86    1
   107    22    87    1
   108    27    45    1
   109    28    34    1
   110    32    58    1
   111    33    46    2
   112    36    51    1
   113    36    66    1
   114    37    52    1
   115    37    67    1
   116    38    53    1
   117    38    68    1
   118    42    48    1
   119    42    72    1
   120    43    44    2
   121    60    73    1
   122    61    74    1
   123    39    69    1
   124    39    57    1
   125    40    70    1
   126    40    50    1
   127    41    71    1
   128    41    49    1
