@<TRIPOS>MOLECULE
*****
 123 128 0 0 0
SMALL
GASTEIGER

@<TRIPOS>ATOM
     1 C         5.198883   1.609196   0.617554 C.3        1 UNL1     0.0009
     2 C         6.680836   2.365066   -0.200685 C.2        1 UNL1     -0.0787
     3 C         7.977421   2.22349   -0.829072 C.2        1 UNL1     -0.0649
     4 C         8.910062   3.424893   -1.572825 C.2        1 UNL1     -0.0542
     5 C         9.963621   3.67817   -2.485481 C.2        1 UNL1     0.0115
     6 C         11.097299   3.011587   -3.312382 C.3        1 UNL1     -0.0348
     7 C         10.117639   5.151154   -3.104824 C.2        1 UNL1     0.2441
     8 O         10.953605   5.953717   -2.712931 O.2        1 UNL1     -0.2702
     9 N         9.406364   5.365615   -4.298241 N.am        1 UNL1     -0.2772
     10 C         8.126869   5.791555   -4.024762 C.2        1 UNL1     0.1049
     11 C         7.246192   4.847559   -3.74637 C.2        1 UNL1     0.0801
     12 C         6.83572   7.449885   -2.668219 C.ar        1 UNL1     0.0753
     13 C         6.03296   6.348812   -2.230241 C.ar        1 UNL1     0.0305
     14 C         6.130827   5.033062   -2.858155 C.2        1 UNL1     0.0924
     15 N         7.335581   3.513942   -3.887798 N.pl3        1 UNL1     -0.3170
     16 C         6.041064   2.954127   -3.603044 C.3        1 UNL1     0.1275
     17 N         5.404943   3.937911   -2.651602 N.2        1 UNL1     -0.2557
     18 C         5.225646   3.022563   -4.89072 C.3        1 UNL1     0.0016
     19 C         5.991945   2.304786   -5.990344 C.3        1 UNL1     0.0026
     20 N         6.212219   0.924173   -5.582404 N.3        1 UNL1     -0.3018
     21 C         6.936029   0.756682   -4.320495 C.3        1 UNL1     0.0026
     22 C         6.146278   1.481464   -3.229222 C.3        1 UNL1     0.0016
     23 C         6.664035   0.079902   -6.67039 C.3        1 UNL1     0.0012
     24 C         5.529719   -0.148392   -7.681808 C.3        1 UNL1     -0.0339
     25 C         5.684892   0.757113   -8.914707 C.3        1 UNL1     -0.0615
     26 C         5.465641   -1.61532   -8.070133 C.3        1 UNL1     -0.0615
     27 C         6.652057   8.728888   -2.148089 C.ar        1 UNL1     0.1347
     28 C         5.67471   9.036091   -1.21832 C.ar        1 UNL1     0.0342
     29 C         4.928857   7.927029   -0.765717 C.ar        1 UNL1     0.1435
     30 C         5.125937   6.633675   -1.25112 C.ar        1 UNL1     0.0774
     31 O         3.868193   8.079395   0.056951 O.3        1 UNL1     -0.4436
     32 C         3.116193   6.865682   -0.092281 C.3        1 UNL1     0.3143
     33 C         4.115409   5.838625   -0.585167 C.2        1 UNL1     0.2504
     34 C         5.254588   10.419099   -0.804934 C.3        1 UNL1     -0.0327
     35 O         2.706955   6.454309   1.21789 O.2        1 UNL1     -0.4528
     36 C         -0.577129   4.609107   0.750865 C.3        1 UNL1     0.0854
     37 C         -0.892902   3.347369   -0.141227 C.3        1 UNL1     0.0236
     38 C         -1.550495   2.112696   0.642927 C.3        1 UNL1     0.1131
     39 C         -0.876439   1.576603   1.969774 C.3        1 UNL1     0.0200
     40 C         0.778193   1.385166   2.059107 C.3        1 UNL1     0.0661
     41 C         1.747532   0.576506   0.925943 C.3        1 UNL1     0.0091
     42 C         3.479682   0.884721   0.406266 C.3        1 UNL1     0.0661
     43 C         7.810266   7.202903   -3.759787 C.2        1 UNL1     0.2131
     44 O         8.25516   8.081176   -4.476336 O.2        1 UNL1     -0.2851
     45 O         7.505664   9.735577   -2.594598 O.3        1 UNL1     -0.5056
     46 O         4.093745   4.636689   -0.441177 O.2        1 UNL1     -0.2836
     47 C         5.542874   1.18529   2.07081 C.3        1 UNL1     -0.0566
     48 O         3.885748   -0.537342   0.515643 O.3        1 UNL1     -0.3909
     49 C         0.941848   0.35315   -0.334406 C.3        1 UNL1     -0.0577
     50 O         1.401432   2.590192   2.455604 O.3        1 UNL1     -0.3910
     51 O         -0.745104   4.438908   2.140199 O.3        1 UNL1     -0.3753
     52 C         0.178191   3.144591   -1.262204 C.3        1 UNL1     -0.0564
     53 O         -2.157008   1.080732   -0.262347 O.3        1 UNL1     -0.4608
     54 C         -2.40632   -0.224123   0.073994 C.2        1 UNL1     0.3042
     55 O         -1.778036   -1.220297   -0.282004 O.2        1 UNL1     -0.2512
     56 C         -3.552812   -0.390137   1.030398 C.3        1 UNL1     0.0332
     57 C         -1.613005   2.279878   3.203082 C.3        1 UNL1     -0.0567
     58 C         2.078862   7.128306   -1.208749 C.3        1 UNL1     0.0210
     59 C         -1.045279   5.634599   2.858587 C.3        1 UNL1     0.0372
     60 C         0.775003   5.198117   0.550948 C.2        1 UNL1     -0.0208
     61 C         1.67539   5.617585   1.440945 C.2        1 UNL1     0.0882
     62 H         4.748728   2.607221   0.680932 H        1 UNL1     0.0365
     63 H         6.441656   3.427032   -0.114136 H        1 UNL1     0.0576
     64 H         8.413527   1.241759   -1.026867 H        1 UNL1     0.0615
     65 H         8.439606   4.357456   -1.249593 H        1 UNL1     0.0622
     66 H         -1.291487   5.372558   0.411924 H        1 UNL1     0.0645
     67 H         -1.732062   3.67379   -0.779834 H        1 UNL1     0.0362
     68 H         -2.494238   2.579872   0.963268 H        1 UNL1     0.0741
     69 H         -1.2417   0.57747   2.166565 H        1 UNL1     0.0359
     70 H         0.846763   0.732101   2.950098 H        1 UNL1     0.0600
     71 H         1.750372   -0.440524   1.364805 H        1 UNL1     0.0348
     72 H         3.360492   1.386879   1.37732 H        1 UNL1     0.0602
     73 H         0.927147   5.380113   -0.483932 H        1 UNL1     0.0628
     74 H         1.622215   5.419757   2.512054 H        1 UNL1     0.1022
     75 H         11.056583   1.900426   -3.208949 H        1 UNL1     0.0279
     76 H         11.055885   3.148159   -4.390669 H        1 UNL1     0.0279
     77 H         12.098968   3.229847   -2.913982 H        1 UNL1     0.0279
     78 H         9.33439   4.491787   -4.815272 H        1 UNL1     0.1553
     79 H         8.005367   3.06048   -4.481677 H        1 UNL1     0.1484
     80 H         4.245857   2.560947   -4.718411 H        1 UNL1     0.0317
     81 H         5.036037   4.062074   -5.179019 H        1 UNL1     0.0317
     82 H         6.943775   2.80699   -6.21777 H        1 UNL1     0.0428
     83 H         5.393587   2.367167   -6.899809 H        1 UNL1     0.0428
     84 H         7.018199   -0.285617   -3.996963 H        1 UNL1     0.0428
     85 H         7.978596   1.094563   -4.399287 H        1 UNL1     0.0428
     86 H         6.63002   1.227179   -2.304387 H        1 UNL1     0.0317
     87 H         5.150631   1.032857   -3.126577 H        1 UNL1     0.0317
     88 H         7.489418   0.59316   -7.180884 H        1 UNL1     0.0429
     89 H         7.059822   -0.873512   -6.297393 H        1 UNL1     0.0429
     90 H         4.569888   0.076607   -7.201898 H        1 UNL1     0.0308
     91 H         6.650335   0.599663   -9.404842 H        1 UNL1     0.0233
     92 H         4.883296   0.571711   -9.633511 H        1 UNL1     0.0233
     93 H         5.627216   1.822397   -8.660386 H        1 UNL1     0.0233
     94 H         4.831409   -1.744754   -8.953781 H        1 UNL1     0.0233
     95 H         6.466448   -1.980516   -8.317075 H        1 UNL1     0.0233
     96 H         5.057394   -2.22526   -7.259408 H        1 UNL1     0.0233
     97 H         4.402352   10.402027   -0.132155 H        1 UNL1     0.0280
     98 H         6.051066   10.950283   -0.267604 H        1 UNL1     0.0280
     99 H         4.978219   11.003234   -1.697963 H        1 UNL1     0.0280
     100 H         7.069478   10.508286   -2.908104 H        1 UNL1     0.2922
     101 H         4.633345   0.887117   2.591873 H        1 UNL1     0.0236
     102 H         6.097767   1.945787   2.61919 H        1 UNL1     0.0236
     103 H         6.187871   0.291235   2.099735 H        1 UNL1     0.0236
     104 H         4.187457   -0.688228   1.432799 H        1 UNL1     0.2098
     105 H         0.770678   1.250946   -0.923027 H        1 UNL1     0.0234
     106 H         1.306883   -0.452355   -0.971459 H        1 UNL1     0.0234
     107 H         0.0   -0.0   0.0 H        1 UNL1     0.0234
     108 H         1.295147   3.226637   1.722523 H        1 UNL1     0.2098
     109 H         1.190275   3.019219   -0.852717 H        1 UNL1     0.0234
     110 H         -0.052343   2.308866   -1.931652 H        1 UNL1     0.0234
     111 H         0.233699   4.013865   -1.930955 H        1 UNL1     0.0234
     112 H         -3.684641   -1.448932   1.273132 H        1 UNL1     0.0342
     113 H         -3.422274   0.204401   1.933352 H        1 UNL1     0.0342
     114 H         -4.468265   -0.042305   0.532278 H        1 UNL1     0.0342
     115 H         -2.703481   2.155444   3.152417 H        1 UNL1     0.0234
     116 H         -1.2863   1.918309   4.180109 H        1 UNL1     0.0234
     117 H         -1.52366   3.379854   3.199704 H        1 UNL1     0.0234
     118 H         1.178806   7.640733   -0.826226 H        1 UNL1     0.0309
     119 H         2.486801   7.699951   -2.048398 H        1 UNL1     0.0309
     120 H         1.679459   6.202748   -1.637618 H        1 UNL1     0.0309
     121 H         -0.705153   5.496963   3.884612 H        1 UNL1     0.0524
     122 H         -0.518073   6.512284   2.449 H        1 UNL1     0.0524
     123 H         -2.114546   5.825489   2.840577 H        1 UNL1     0.0524
@<TRIPOS>BOND
     1     1     2    1
     2     1    42    1
     3     2     3    2
     4     3     4    1
     5     4     5    2
     6     5     7    1
     7     6    75    1
     8     6    76    1
     9     6    77    1
    10     7     9   am
    11     9    10    1
    12    10    11    2
    13    10    43    1
    14    11    14    1
    15    11    15    1
    16    12    13   ar
    17    12    27   ar
    18    12    43    1
    19    13    14    1
    20    13    30   ar
    21    14    17    2
    22    15    16    1
    23    16    17    1
    24    16    18    1
    25    16    22    1
    26    18    19    1
    27    19    20    1
    28    20    21    1
    29    21    22    1
    30    23    24    1
    31    23    88    1
    32    23    89    1
    33    24    25    1
    34    24    26    1
    35    24    90    1
    36    25    91    1
    37    25    92    1
    38    25    93    1
    39    26    94    1
    40    26    95    1
    41    26    96    1
    42    27    28   ar
    43    28    29   ar
    44    29    30   ar
    45    29    31    1
    46    30    33    1
    47    31    32    1
    48    32    33    1
    49    32    35    1
    50    34    97    1
    51    34    98    1
    52    34    99    1
    53    35    61    1
    54    36    37    1
    55    36    60    1
    56    37    38    1
    57    38    39    1
    58    39    40    1
    59    40    41    1
    60    41    42    1
    61    45   100    1
    62    47   101    1
    63    47   102    1
    64    47   103    1
    65    48   104    1
    66    49   105    1
    67    49   106    1
    68    49   107    1
    69    50   108    1
    70    51    59    1
    71    52   109    1
    72    52   110    1
    73    52   111    1
    74    53    54    1
    75    54    55    2
    76    54    56    1
    77    56   112    1
    78    56   113    1
    79    56   114    1
    80    57   115    1
    81    57   116    1
    82    57   117    1
    83    58   118    1
    84    58   119    1
    85    58   120    1
    86    59   121    1
    87    59   122    1
    88    59   123    1
    89    60    61    2
    90     1    47    1
    91     1    62    1
    92     2    63    1
    93     3    64    1
    94     4    65    1
    95     5     6    1
    96     7     8    2
    97     9    78    1
    98    15    79    1
    99    18    80    1
   100    18    81    1
   101    19    82    1
   102    19    83    1
   103    20    23    1
   104    21    84    1
   105    21    85    1
   106    22    86    1
   107    22    87    1
   108    27    45    1
   109    28    34    1
   110    32    58    1
   111    33    46    2
   112    36    51    1
   113    36    66    1
   114    37    52    1
   115    37    67    1
   116    38    53    1
   117    38    68    1
   118    42    48    1
   119    42    72    1
   120    43    44    2
   121    60    73    1
   122    61    74    1
   123    39    69    1
   124    39    57    1
   125    40    70    1
   126    40    50    1
   127    41    71    1
   128    41    49    1
