@<TRIPOS>MOLECULE
*****
 123 128 0 0 0
SMALL
GASTEIGER

@<TRIPOS>ATOM
     1 C         3.134266   2.681977   0.168576 C.3        1 UNL1     0.0009
     2 C         3.04948   4.530341   0.284335 C.2        1 UNL1     -0.0787
     3 C         3.045773   5.829962   -0.353645 C.2        1 UNL1     -0.0649
     4 C         2.793892   7.341653   0.36587 C.2        1 UNL1     -0.0542
     5 C         2.432646   8.691867   0.134566 C.2        1 UNL1     0.0115
     6 C         2.173917   9.751669   -0.971419 C.3        1 UNL1     -0.0348
     7 C         1.957142   9.592357   1.375535 C.2        1 UNL1     0.2441
     8 O         2.681764   10.416726   1.915779 O.2        1 UNL1     -0.2702
     9 N         0.575482   9.558617   1.632494 N.am        1 UNL1     -0.2772
     10 C         0.269966   8.518775   2.480262 C.2        1 UNL1     0.1049
     11 C         0.128041   7.33209   1.918251 C.2        1 UNL1     0.0801
     12 C         0.947471   7.456943   4.641473 C.ar        1 UNL1     0.0753
     13 C         0.981499   6.215256   3.930372 C.ar        1 UNL1     0.0305
     14 C         0.444958   6.093792   2.576703 C.2        1 UNL1     0.0924
     15 N         0.025716   6.997578   0.6205 N.pl3        1 UNL1     -0.3170
     16 C         -0.286395   5.594689   0.551632 C.3        1 UNL1     0.1275
     17 N         0.304064   5.013865   1.813268 N.2        1 UNL1     -0.2557
     18 C         -1.799722   5.460748   0.691643 C.3        1 UNL1     0.0016
     19 C         -2.464274   6.305269   -0.383877 C.3        1 UNL1     0.0026
     20 N         -2.015476   5.838998   -1.688561 N.3        1 UNL1     -0.3018
     21 C         -0.566203   5.871657   -1.895705 C.3        1 UNL1     0.0026
     22 C         0.080707   5.013278   -0.807317 C.3        1 UNL1     0.0016
     23 C         -2.807568   6.369655   -2.780183 C.3        1 UNL1     0.0012
     24 C         -2.057828   6.217931   -4.113084 C.3        1 UNL1     -0.0339
     25 C         -2.020936   7.543308   -4.89159 C.3        1 UNL1     -0.0615
     26 C         -0.660792   5.675697   -3.865992 C.3        1 UNL1     -0.0615
     27 C         1.349275   7.537531   5.972705 C.ar        1 UNL1     0.1347
     28 C         1.764871   6.441046   6.706907 C.ar        1 UNL1     0.0342
     29 C         1.836723   5.238457   5.972209 C.ar        1 UNL1     0.1435
     30 C         1.471875   5.149878   4.628237 C.ar        1 UNL1     0.0774
     31 O         2.11805   4.061479   6.572697 O.3        1 UNL1     -0.4436
     32 C         1.644184   3.063988   5.655454 C.3        1 UNL1     0.3143
     33 C         1.624051   3.747089   4.302982 C.2        1 UNL1     0.2504
     34 C         1.968837   6.402882   8.19588 C.3        1 UNL1     -0.0327
     35 O         2.641848   2.037546   5.589597 O.2        1 UNL1     -0.4528
     36 C         0.77455   -1.18243   4.845931 C.3        1 UNL1     0.0854
     37 C         -0.179138   -1.524719   3.637279 C.3        1 UNL1     0.0236
     38 C         0.228345   -2.833138   2.804366 C.3        1 UNL1     0.1131
     39 C         1.710646   -2.998304   2.277325 C.3        1 UNL1     0.0200
     40 C         2.508385   -1.709321   1.581211 C.3        1 UNL1     0.0661
     41 C         1.90095   -0.712005   0.350767 C.3        1 UNL1     0.0091
     42 C         2.189143   1.067416   0.010165 C.3        1 UNL1     0.0661
     43 C         0.38558   8.638593   3.9413 C.2        1 UNL1     0.2131
     44 O         -0.05718   9.615213   4.518287 O.2        1 UNL1     -0.2851
     45 O         1.32869   8.792413   6.57792 O.3        1 UNL1     -0.5056
     46 O         1.73184   3.248159   3.205119 O.2        1 UNL1     -0.2836
     47 C         4.588083   2.226454   -0.129577 C.3        1 UNL1     -0.0566
     48 O         2.449416   0.865519   -1.43573 O.3        1 UNL1     -0.3909
     49 C         0.413439   -0.95132   0.218355 C.3        1 UNL1     -0.0577
     50 O         3.148852   -0.924733   2.567085 O.3        1 UNL1     -0.3910
     51 O         1.95088   -1.953677   4.940055 O.3        1 UNL1     -0.3753
     52 C         -0.725085   -0.234227   2.943362 C.3        1 UNL1     -0.0564
     53 O         -0.861217   -3.33415   1.902055 O.3        1 UNL1     -0.4608
     54 C         -1.266155   -4.638777   1.792941 C.2        1 UNL1     0.3042
     55 O         -1.315421   -5.482756   2.68687 O.2        1 UNL1     -0.2512
     56 C         -1.744224   -5.007036   0.417242 C.3        1 UNL1     0.0332
     57 C         2.508358   -3.877745   3.348966 C.3        1 UNL1     -0.0567
     58 C         0.190579   2.741104   6.072956 C.3        1 UNL1     0.0210
     59 C         1.828922   -3.139652   5.723926 C.3        1 UNL1     0.0372
     60 C         1.188407   0.244381   4.935888 C.2        1 UNL1     -0.0208
     61 C         2.385612   0.784187   5.168383 C.2        1 UNL1     0.0882
     62 H         3.006   2.627126   1.256349 H        1 UNL1     0.0365
     63 H         3.034454   4.665999   1.367774 H        1 UNL1     0.0576
     64 H         3.047057   5.933864   -1.440986 H        1 UNL1     0.0615
     65 H         2.890124   7.140114   1.436199 H        1 UNL1     0.0622
     66 H         0.166708   -1.376854   5.74079 H        1 UNL1     0.0645
     67 H         -1.115616   -1.854516   4.119775 H        1 UNL1     0.0362
     68 H         0.11141   -3.595126   3.590001 H        1 UNL1     0.0741
     69 H         1.718722   -3.736988   1.486953 H        1 UNL1     0.0359
     70 H         3.333772   -2.246321   1.075813 H        1 UNL1     0.0600
     71 H         2.286843   -1.246458   -0.539404 H        1 UNL1     0.0348
     72 H         3.016983   0.744731   0.658139 H        1 UNL1     0.0602
     73 H         0.324508   0.86098   4.908834 H        1 UNL1     0.0628
     74 H         3.324993   0.230475   5.154137 H        1 UNL1     0.1022
     75 H         3.136989   10.084968   -1.427969 H        1 UNL1     0.0279
     76 H         1.606312   9.419945   -1.837937 H        1 UNL1     0.0279
     77 H         1.784976   10.698944   -0.570049 H        1 UNL1     0.0279
     78 H         0.069542   9.403698   0.762953 H        1 UNL1     0.1553
     79 H         -0.222621   7.646027   -0.103915 H        1 UNL1     0.1484
     80 H         -2.07526   4.403373   0.597813 H        1 UNL1     0.0317
     81 H         -2.130987   5.784085   1.6843 H        1 UNL1     0.0317
     82 H         -2.250103   7.375965   -0.251013 H        1 UNL1     0.0428
     83 H         -3.542722   6.196706   -0.264654 H        1 UNL1     0.0428
     84 H         -0.249943   5.442445   -2.851513 H        1 UNL1     0.0428
     85 H         -0.180445   6.900095   -1.924393 H        1 UNL1     0.0428
     86 H         1.121183   4.951743   -1.06734 H        1 UNL1     0.0317
     87 H         -0.264323   3.975707   -0.893905 H        1 UNL1     0.0317
     88 H         -3.740617   5.79386   -2.836515 H        1 UNL1     0.0429
     89 H         -3.085729   7.415905   -2.599183 H        1 UNL1     0.0429
     90 H         -2.566604   5.465941   -4.727796 H        1 UNL1     0.0308
     91 H         -1.545007   8.335489   -4.305891 H        1 UNL1     0.0233
     92 H         -1.483232   7.42238   -5.834914 H        1 UNL1     0.0233
     93 H         -3.0237   7.901045   -5.154884 H        1 UNL1     0.0233
     94 H         0.061598   6.498032   -3.824123 H        1 UNL1     0.0233
     95 H         -0.628329   5.149355   -2.907936 H        1 UNL1     0.0233
     96 H         -0.35438   4.986542   -4.657917 H        1 UNL1     0.0233
     97 H         1.821902   5.406478   8.601859 H        1 UNL1     0.0280
     98 H         2.987278   6.696693   8.481731 H        1 UNL1     0.0280
     99 H         1.25269   7.083997   8.68405 H        1 UNL1     0.0280
     100 H         2.178561   9.158619   6.7489 H        1 UNL1     0.2922
     101 H         4.927304   1.54541   0.650656 H        1 UNL1     0.0236
     102 H         5.276745   3.058202   -0.274229 H        1 UNL1     0.0236
     103 H         4.655589   1.640422   -1.061351 H        1 UNL1     0.0236
     104 H         3.408818   0.714907   -1.54451 H        1 UNL1     0.2098
     105 H         0.137218   -1.626995   -0.587236 H        1 UNL1     0.0234
     106 H         -0.085089   -1.242074   1.142941 H        1 UNL1     0.0234
     107 H         -0.0   0.0   0.0 H        1 UNL1     0.0234
     108 H         2.688531   -0.063932   2.596982 H        1 UNL1     0.2098
     109 H         -1.747795   -0.367018   2.563703 H        1 UNL1     0.0234
     110 H         -0.685479   0.650557   3.587826 H        1 UNL1     0.0234
     111 H         -0.118172   0.044106   2.071506 H        1 UNL1     0.0234
     112 H         -2.351244   -4.195514   0.004564 H        1 UNL1     0.0342
     113 H         -0.920208   -5.256556   -0.249528 H        1 UNL1     0.0342
     114 H         -2.384016   -5.896131   0.502922 H        1 UNL1     0.0342
     115 H         1.832238   -4.500878   3.950426 H        1 UNL1     0.0234
     116 H         3.260012   -4.537317   2.910754 H        1 UNL1     0.0234
     117 H         2.998781   -3.276569   4.133831 H        1 UNL1     0.0234
     118 H         0.075649   2.691196   7.169909 H        1 UNL1     0.0309
     119 H         -0.539936   3.448685   5.668134 H        1 UNL1     0.0309
     120 H         -0.131836   1.748546   5.739814 H        1 UNL1     0.0309
     121 H         2.663125   -3.158905   6.424705 H        1 UNL1     0.0524
     122 H         0.89823   -3.156499   6.315167 H        1 UNL1     0.0524
     123 H         1.856294   -4.017345   5.084395 H        1 UNL1     0.0524
@<TRIPOS>BOND
     1     1     2    1
     2     1    42    1
     3     2     3    2
     4     3     4    1
     5     4     5    2
     6     5     7    1
     7     6    75    1
     8     6    76    1
     9     6    77    1
    10     7     9   am
    11     9    10    1
    12    10    11    2
    13    10    43    1
    14    11    14    1
    15    11    15    1
    16    12    13   ar
    17    12    27   ar
    18    12    43    1
    19    13    14    1
    20    13    30   ar
    21    14    17    2
    22    15    16    1
    23    16    17    1
    24    16    18    1
    25    16    22    1
    26    18    19    1
    27    19    20    1
    28    20    21    1
    29    21    22    1
    30    23    24    1
    31    23    88    1
    32    23    89    1
    33    24    25    1
    34    24    26    1
    35    24    90    1
    36    25    91    1
    37    25    92    1
    38    25    93    1
    39    26    94    1
    40    26    95    1
    41    26    96    1
    42    27    28   ar
    43    28    29   ar
    44    29    30   ar
    45    29    31    1
    46    30    33    1
    47    31    32    1
    48    32    33    1
    49    32    35    1
    50    34    97    1
    51    34    98    1
    52    34    99    1
    53    35    61    1
    54    36    37    1
    55    36    60    1
    56    37    38    1
    57    38    39    1
    58    39    40    1
    59    40    41    1
    60    41    42    1
    61    45   100    1
    62    47   101    1
    63    47   102    1
    64    47   103    1
    65    48   104    1
    66    49   105    1
    67    49   106    1
    68    49   107    1
    69    50   108    1
    70    51    59    1
    71    52   109    1
    72    52   110    1
    73    52   111    1
    74    53    54    1
    75    54    55    2
    76    54    56    1
    77    56   112    1
    78    56   113    1
    79    56   114    1
    80    57   115    1
    81    57   116    1
    82    57   117    1
    83    58   118    1
    84    58   119    1
    85    58   120    1
    86    59   121    1
    87    59   122    1
    88    59   123    1
    89    60    61    2
    90     1    47    1
    91     1    62    1
    92     2    63    1
    93     3    64    1
    94     4    65    1
    95     5     6    1
    96     7     8    2
    97     9    78    1
    98    15    79    1
    99    18    80    1
   100    18    81    1
   101    19    82    1
   102    19    83    1
   103    20    23    1
   104    21    84    1
   105    21    85    1
   106    22    86    1
   107    22    87    1
   108    27    45    1
   109    28    34    1
   110    32    58    1
   111    33    46    2
   112    36    51    1
   113    36    66    1
   114    37    52    1
   115    37    67    1
   116    38    53    1
   117    38    68    1
   118    42    48    1
   119    42    72    1
   120    43    44    2
   121    60    73    1
   122    61    74    1
   123    39    69    1
   124    39    57    1
   125    40    70    1
   126    40    50    1
   127    41    71    1
   128    41    49    1
