@<TRIPOS>MOLECULE
*****
 123 128 0 0 0
SMALL
GASTEIGER

@<TRIPOS>ATOM
     1 C         3.347982   0.192122   -2.971673 C.3        1 UNL1     0.0009
     2 C         4.756757   -0.981752   -3.244455 C.2        1 UNL1     -0.0787
     3 C         6.171937   -1.281165   -3.183934 C.2        1 UNL1     -0.0649
     4 C         6.938255   -2.755959   -3.506574 C.2        1 UNL1     -0.0542
     5 C         8.112682   -3.522462   -3.305895 C.2        1 UNL1     0.0115
     6 C         9.574223   -3.468534   -2.782147 C.3        1 UNL1     -0.0348
     7 C         8.056317   -5.108276   -3.548808 C.2        1 UNL1     0.2441
     8 O         8.497841   -5.643211   -4.556492 O.2        1 UNL1     -0.2702
     9 N         7.704583   -5.865249   -2.417691 N.am        1 UNL1     -0.2772
     10 C         6.337322   -5.994275   -2.332409 C.2        1 UNL1     0.1049
     11 C         5.690996   -4.985279   -1.77706 C.2        1 UNL1     0.0801
     12 C         4.314844   -6.602169   -3.673073 C.ar        1 UNL1     0.0753
     13 C         3.733157   -5.381708   -3.203261 C.ar        1 UNL1     0.0305
     14 C         4.353032   -4.599859   -2.135778 C.2        1 UNL1     0.0924
     15 N         6.16219   -3.933038   -1.086196 N.pl3        1 UNL1     -0.3170
     16 C         5.034115   -3.217998   -0.551015 C.3        1 UNL1     0.1275
     17 N         3.90962   -3.510935   -1.514042 N.2        1 UNL1     -0.2557
     18 C         4.652944   -3.893013   0.76305 C.3        1 UNL1     0.0016
     19 C         5.872109   -3.912641   1.671258 C.3        1 UNL1     0.0026
     20 N         6.311328   -2.542113   1.894344 N.3        1 UNL1     -0.3018
     21 C         6.641865   -1.790055   0.682105 C.3        1 UNL1     0.0026
     22 C         5.401845   -1.779105   -0.21351 C.3        1 UNL1     0.0016
     23 C         7.271187   -2.426221   2.974105 C.3        1 UNL1     0.0012
     24 C         7.898912   -3.793892   3.285863 C.3        1 UNL1     -0.0339
     25 C         9.389149   -3.827746   2.908896 C.3        1 UNL1     -0.0615
     26 C         7.684055   -4.144402   4.74797 C.3        1 UNL1     -0.0615
     27 C         3.658004   -7.403222   -4.604198 C.ar        1 UNL1     0.1347
     28 C         2.40267   -7.109061   -5.105851 C.ar        1 UNL1     0.0342
     29 C         1.87093   -5.878144   -4.666239 C.ar        1 UNL1     0.1435
     30 C         2.53343   -5.047668   -3.761461 C.ar        1 UNL1     0.0774
     31 O         0.611413   -5.502719   -4.978775 O.3        1 UNL1     -0.4436
     32 C         0.2813   -4.4975   -4.0085 C.3        1 UNL1     0.3143
     33 C         1.613208   -3.953221   -3.533111 C.2        1 UNL1     0.2504
     34 C         1.533632   -8.037756   -5.907348 C.3        1 UNL1     -0.0327
     35 O         -0.379405   -3.433777   -4.705073 O.2        1 UNL1     -0.4528
     36 C         -2.774867   -1.881409   -2.203072 C.3        1 UNL1     0.0854
     37 C         -2.469755   -1.254748   -0.788248 C.3        1 UNL1     0.0236
     38 C         -2.986992   0.250196   -0.589869 C.3        1 UNL1     0.1131
     39 C         -2.625705   1.352744   -1.665103 C.3        1 UNL1     0.0200
     40 C         -1.083568   1.446268   -2.293994 C.3        1 UNL1     0.0661
     41 C         0.355672   1.472054   -1.396479 C.3        1 UNL1     0.0091
     42 C         2.02124   0.817088   -1.799353 C.3        1 UNL1     0.0661
     43 C         5.600352   -7.03196   -3.068914 C.2        1 UNL1     0.2131
     44 O         5.994774   -8.183975   -3.074446 O.2        1 UNL1     -0.2851
     45 O         4.31347   -8.551556   -5.043666 O.3        1 UNL1     -0.5056
     46 O         1.862811   -2.855645   -3.087153 O.2        1 UNL1     -0.2836
     47 C         3.339251   1.288663   -4.070537 C.3        1 UNL1     -0.0566
     48 O         2.731132   2.053545   -1.391503 O.3        1 UNL1     -0.3909
     49 C         0.051144   1.058453   0.026086 C.3        1 UNL1     -0.0577
     50 O         -0.943384   0.586855   -3.407314 O.3        1 UNL1     -0.3910
     51 O         -3.300475   -0.997944   -3.167778 O.3        1 UNL1     -0.3753
     52 C         -1.098306   -1.744226   -0.21861 C.3        1 UNL1     -0.0564
     53 O         -3.004612   0.695179   0.843312 O.3        1 UNL1     -0.4608
     54 C         -2.99479   1.996764   1.271927 C.2        1 UNL1     0.3042
     55 O         -3.621713   2.477169   2.215334 O.2        1 UNL1     -0.2512
     56 C         -2.0531   2.876908   0.500383 C.3        1 UNL1     0.0332
     57 C         -3.853796   1.452577   -2.684906 C.3        1 UNL1     -0.0567
     58 C         -0.405326   -5.232279   -2.833692 C.3        1 UNL1     0.0210
     59 C         -3.988272   -1.629044   -4.246905 C.3        1 UNL1     0.0372
     60 C         -1.626871   -2.58087   -2.841837 C.2        1 UNL1     -0.0208
     61 C         -1.175598   -2.534279   -4.096001 C.2        1 UNL1     0.0882
     62 H         2.656201   -0.590733   -3.305272 H        1 UNL1     0.0365
     63 H         4.235107   -1.821544   -3.708244 H        1 UNL1     0.0576
     64 H         6.886797   -0.581516   -2.745099 H        1 UNL1     0.0615
     65 H         6.167118   -3.345796   -4.009488 H        1 UNL1     0.0622
     66 H         -3.527838   -2.657144   -2.004792 H        1 UNL1     0.0645
     67 H         -3.133999   -1.807462   -0.101338 H        1 UNL1     0.0362
     68 H         -4.070751   0.087181   -0.691929 H        1 UNL1     0.0741
     69 H         -2.760087   2.329781   -1.220413 H        1 UNL1     0.0359
     70 H         -1.117346   2.4624   -2.73148 H        1 UNL1     0.0600
     71 H         0.491467   2.565225   -1.280322 H        1 UNL1     0.0348
     72 H         1.490709   0.907239   -2.758376 H        1 UNL1     0.0602
     73 H         -1.224908   -3.287725   -2.159173 H        1 UNL1     0.0628
     74 H         -1.493422   -1.801944   -4.838909 H        1 UNL1     0.1022
     75 H         9.663328   -4.014104   -1.811864 H        1 UNL1     0.0279
     76 H         10.327779   -3.957169   -3.395709 H        1 UNL1     0.0279
     77 H         9.884113   -2.45449   -2.489941 H        1 UNL1     0.0279
     78 H         8.020433   -5.388762   -1.575506 H        1 UNL1     0.1553
     79 H         7.072704   -3.905665   -0.665308 H        1 UNL1     0.1484
     80 H         3.821918   -3.342245   1.220015 H        1 UNL1     0.0317
     81 H         4.29479   -4.9134   0.589308 H        1 UNL1     0.0317
     82 H         6.683401   -4.524768   1.250523 H        1 UNL1     0.0428
     83 H         5.578639   -4.39975   2.601661 H        1 UNL1     0.0428
     84 H         6.891565   -0.74134   0.870938 H        1 UNL1     0.0428
     85 H         7.534725   -2.191193   0.1829 H        1 UNL1     0.0428
     86 H         5.635397   -1.112963   -1.023261 H        1 UNL1     0.0317
     87 H         4.573719   -1.274737   0.299245 H        1 UNL1     0.0317
     88 H         8.066804   -1.74181   2.651817 H        1 UNL1     0.0429
     89 H         6.812806   -1.987495   3.869751 H        1 UNL1     0.0429
     90 H         7.375949   -4.568278   2.712234 H        1 UNL1     0.0308
     91 H         9.821663   -2.822745   2.906239 H        1 UNL1     0.0233
     92 H         9.949276   -4.457403   3.604166 H        1 UNL1     0.0233
     93 H         9.557928   -4.249353   1.9106 H        1 UNL1     0.0233
     94 H         8.187403   -5.087124   4.988287 H        1 UNL1     0.0233
     95 H         8.108207   -3.363694   5.385584 H        1 UNL1     0.0233
     96 H         6.620843   -4.25125   4.980637 H        1 UNL1     0.0233
     97 H         1.927272   -8.204125   -6.905647 H        1 UNL1     0.0280
     98 H         1.453924   -9.030928   -5.446357 H        1 UNL1     0.0280
     99 H         0.522919   -7.608025   -6.001609 H        1 UNL1     0.0280
     100 H         5.248772   -8.531863   -4.941461 H        1 UNL1     0.2922
     101 H         3.987025   2.112862   -3.772643 H        1 UNL1     0.0236
     102 H         2.336947   1.628913   -4.32861 H        1 UNL1     0.0236
     103 H         3.766318   0.926338   -5.020552 H        1 UNL1     0.0236
     104 H         2.780604   2.636969   -2.173897 H        1 UNL1     0.2098
     105 H         0.814737   1.336967   0.748006 H        1 UNL1     0.0234
     106 H         -0.93434   1.354553   0.385352 H        1 UNL1     0.0234
     107 H         -0.0   0.0   0.0 H        1 UNL1     0.0234
     108 H         0.01302   0.448208   -3.548154 H        1 UNL1     0.2098
     109 H         -0.257719   -1.483991   -0.876942 H        1 UNL1     0.0234
     110 H         -0.897571   -1.378194   0.794045 H        1 UNL1     0.0234
     111 H         -1.069101   -2.837302   -0.117232 H        1 UNL1     0.0234
     112 H         -1.429568   2.26632   -0.159721 H        1 UNL1     0.0342
     113 H         -2.579746   3.646789   -0.061552 H        1 UNL1     0.0342
     114 H         -1.390866   3.382082   1.21691 H        1 UNL1     0.0342
     115 H         -4.808215   1.601851   -2.161466 H        1 UNL1     0.0234
     116 H         -3.754968   2.252006   -3.421924 H        1 UNL1     0.0234
     117 H         -4.052926   0.512203   -3.22711 H        1 UNL1     0.0234
     118 H         -0.129493   -4.799582   -1.856095 H        1 UNL1     0.0309
     119 H         -1.496286   -5.255301   -2.920171 H        1 UNL1     0.0309
     120 H         -0.085925   -6.276571   -2.746833 H        1 UNL1     0.0309
     121 H         -5.00354   -1.840201   -3.912242 H        1 UNL1     0.0524
     122 H         -4.05985   -0.978861   -5.134698 H        1 UNL1     0.0524
     123 H         -3.485793   -2.5512   -4.524819 H        1 UNL1     0.0524
@<TRIPOS>BOND
     1     1     2    1
     2     1    42    1
     3     2     3    2
     4     3     4    1
     5     4     5    2
     6     5     7    1
     7     6    75    1
     8     6    76    1
     9     6    77    1
    10     7     9   am
    11     9    10    1
    12    10    11    2
    13    10    43    1
    14    11    14    1
    15    11    15    1
    16    12    13   ar
    17    12    27   ar
    18    12    43    1
    19    13    14    1
    20    13    30   ar
    21    14    17    2
    22    15    16    1
    23    16    17    1
    24    16    18    1
    25    16    22    1
    26    18    19    1
    27    19    20    1
    28    20    21    1
    29    21    22    1
    30    23    24    1
    31    23    88    1
    32    23    89    1
    33    24    25    1
    34    24    26    1
    35    24    90    1
    36    25    91    1
    37    25    92    1
    38    25    93    1
    39    26    94    1
    40    26    95    1
    41    26    96    1
    42    27    28   ar
    43    28    29   ar
    44    29    30   ar
    45    29    31    1
    46    30    33    1
    47    31    32    1
    48    32    33    1
    49    32    35    1
    50    34    97    1
    51    34    98    1
    52    34    99    1
    53    35    61    1
    54    36    37    1
    55    36    60    1
    56    37    38    1
    57    38    39    1
    58    39    40    1
    59    40    41    1
    60    41    42    1
    61    45   100    1
    62    47   101    1
    63    47   102    1
    64    47   103    1
    65    48   104    1
    66    49   105    1
    67    49   106    1
    68    49   107    1
    69    50   108    1
    70    51    59    1
    71    52   109    1
    72    52   110    1
    73    52   111    1
    74    53    54    1
    75    54    55    2
    76    54    56    1
    77    56   112    1
    78    56   113    1
    79    56   114    1
    80    57   115    1
    81    57   116    1
    82    57   117    1
    83    58   118    1
    84    58   119    1
    85    58   120    1
    86    59   121    1
    87    59   122    1
    88    59   123    1
    89    60    61    2
    90     1    47    1
    91     1    62    1
    92     2    63    1
    93     3    64    1
    94     4    65    1
    95     5     6    1
    96     7     8    2
    97     9    78    1
    98    15    79    1
    99    18    80    1
   100    18    81    1
   101    19    82    1
   102    19    83    1
   103    20    23    1
   104    21    84    1
   105    21    85    1
   106    22    86    1
   107    22    87    1
   108    27    45    1
   109    28    34    1
   110    32    58    1
   111    33    46    2
   112    36    51    1
   113    36    66    1
   114    37    52    1
   115    37    67    1
   116    38    53    1
   117    38    68    1
   118    42    48    1
   119    42    72    1
   120    43    44    2
   121    60    73    1
   122    61    74    1
   123    39    69    1
   124    39    57    1
   125    40    70    1
   126    40    50    1
   127    41    71    1
   128    41    49    1
