@<TRIPOS>MOLECULE
*****
 123 128 0 0 0
SMALL
GASTEIGER

@<TRIPOS>ATOM
     1 C         3.348539   0.192645   -2.971012 C.3        1 UNL1     0.0009
     2 C         4.757479   -0.981075   -3.243602 C.2        1 UNL1     -0.0787
     3 C         6.172676   -1.280357   -3.182827 C.2        1 UNL1     -0.0649
     4 C         6.939197   -2.755055   -3.50542 C.2        1 UNL1     -0.0542
     5 C         8.113659   -3.52146   -3.304566 C.2        1 UNL1     0.0115
     6 C         9.575093   -3.467428   -2.780531 C.3        1 UNL1     -0.0348
     7 C         8.057492   -5.107263   -3.547598 C.2        1 UNL1     0.2441
     8 O         8.499263   -5.642087   -4.555233 O.2        1 UNL1     -0.2702
     9 N         7.705612   -5.864347   -2.416601 N.am        1 UNL1     -0.2772
     10 C         6.338347   -5.993509   -2.331592 C.2        1 UNL1     0.1049
     11 C         5.691817   -4.984613   -1.7763 C.2        1 UNL1     0.0801
     12 C         4.316186   -6.601506   -3.672689 C.ar        1 UNL1     0.0753
     13 C         3.734291   -5.381132   -3.202906 C.ar        1 UNL1     0.0305
     14 C         4.353885   -4.599297   -2.13525 C.2        1 UNL1     0.0924
     15 N         6.162776   -3.932374   -1.085273 N.pl3        1 UNL1     -0.3170
     16 C         5.034529   -3.217479   -0.550261 C.3        1 UNL1     0.1275
     17 N         3.910248   -3.510457   -1.513525 N.2        1 UNL1     -0.2557
     18 C         4.653169   -3.89262   0.763684 C.3        1 UNL1     0.0016
     19 C         5.87216   -3.912193   1.672127 C.3        1 UNL1     0.0026
     20 N         6.311205   -2.541639   1.895392 N.3        1 UNL1     -0.3018
     21 C         6.641904   -1.789467   0.683268 C.3        1 UNL1     0.0026
     22 C         5.402056   -1.778574   -0.212586 C.3        1 UNL1     0.0016
     23 C         7.270843   -2.425728   2.975347 C.3        1 UNL1     0.0012
     24 C         6.591179   -2.682003   4.329649 C.3        1 UNL1     -0.0339
     25 C         7.621687   -2.778851   5.466632 C.3        1 UNL1     -0.0615
     26 C         5.555206   -1.605857   4.604335 C.3        1 UNL1     -0.0615
     27 C         3.659603   -7.402558   -4.603996 C.ar        1 UNL1     0.1347
     28 C         2.404338   -7.108482   -5.105872 C.ar        1 UNL1     0.0342
     29 C         1.872395   -5.877646   -4.666279 C.ar        1 UNL1     0.1435
     30 C         2.534641   -5.047168   -3.761315 C.ar        1 UNL1     0.0774
     31 O         0.612903   -5.50232   -4.979032 O.3        1 UNL1     -0.4436
     32 C         0.282506   -4.497199   -4.008753 C.3        1 UNL1     0.3143
     33 C         1.61427   -3.952825   -3.533069 C.2        1 UNL1     0.2504
     34 C         1.535544   -8.037206   -5.907601 C.3        1 UNL1     -0.0327
     35 O         -0.378166   -3.433491   -4.705381 O.2        1 UNL1     -0.4528
     36 C         -2.77426   -1.881523   -2.203738 C.3        1 UNL1     0.0854
     37 C         -2.469483   -1.25493   -0.788812 C.3        1 UNL1     0.0236
     38 C         -2.986902   0.249951   -0.59043 C.3        1 UNL1     0.1131
     39 C         -2.625512   1.352607   -1.665518 C.3        1 UNL1     0.0200
     40 C         -1.083262   1.446321   -2.294105 C.3        1 UNL1     0.0661
     41 C         0.355802   1.472183   -1.39631 C.3        1 UNL1     0.0091
     42 C         2.02151   0.817404   -1.798906 C.3        1 UNL1     0.0661
     43 C         5.601619   -7.031214   -3.06831 C.2        1 UNL1     0.2131
     44 O         5.996151   -8.183191   -3.073845 O.2        1 UNL1     -0.2851
     45 O         4.315264   -8.550798   -5.043415 O.3        1 UNL1     -0.5056
     46 O         1.863682   -2.855256   -3.086988 O.2        1 UNL1     -0.2836
     47 C         3.339915   1.289261   -4.069803 C.3        1 UNL1     -0.0566
     48 O         2.731205   2.053902   -1.390834 O.3        1 UNL1     -0.3909
     49 C         0.051038   1.058456   0.026168 C.3        1 UNL1     -0.0577
     50 O         -0.942781   0.586998   -3.407457 O.3        1 UNL1     -0.3910
     51 O         -3.299767   -0.998043   -3.168485 O.3        1 UNL1     -0.3753
     52 C         -1.098097   -1.744316   -0.218942 C.3        1 UNL1     -0.0564
     53 O         -3.004842   0.694834   0.842778 O.3        1 UNL1     -0.4608
     54 C         -2.995227   1.996391   1.271484 C.2        1 UNL1     0.3042
     55 O         -2.675108   2.993246   0.625231 O.2        1 UNL1     -0.2512
     56 C         -3.493596   2.169997   2.67797 C.3        1 UNL1     0.0332
     57 C         -3.853416   1.452392   -2.685553 C.3        1 UNL1     -0.0567
     58 C         -0.404277   -5.232124   -2.834128 C.3        1 UNL1     0.0210
     59 C         -3.987294   -1.629135   -4.247788 C.3        1 UNL1     0.0372
     60 C         -1.626074   -2.580831   -2.842329 C.2        1 UNL1     -0.0208
     61 C         -1.174563   -2.534112   -4.096402 C.2        1 UNL1     0.0882
     62 H         2.656897   -0.590253   -3.304798 H        1 UNL1     0.0365
     63 H         4.235999   -1.820886   -3.707549 H        1 UNL1     0.0576
     64 H         6.887384   -0.58067   -2.743806 H        1 UNL1     0.0615
     65 H         6.168214   -3.344932   -4.008523 H        1 UNL1     0.0622
     66 H         -3.527196   -2.657344   -2.005656 H        1 UNL1     0.0645
     67 H         -3.133807   -1.807755   -0.102068 H        1 UNL1     0.0362
     68 H         -4.070625   0.086839   -0.692711 H        1 UNL1     0.0741
     69 H         -2.760074   2.329601   -1.220788 H        1 UNL1     0.0359
     70 H         -1.117052   2.46248   -2.731528 H        1 UNL1     0.0600
     71 H         0.49147   2.56536   -1.280052 H        1 UNL1     0.0348
     72 H         1.491156   0.90757   -2.758026 H        1 UNL1     0.0602
     73 H         -1.224176   -3.287694   -2.159635 H        1 UNL1     0.0628
     74 H         -1.492313   -1.801756   -4.839321 H        1 UNL1     0.1022
     75 H         9.808007   -2.454401   -2.372412 H        1 UNL1     0.0279
     76 H         9.814367   -4.118275   -1.942547 H        1 UNL1     0.0279
     77 H         10.319132   -3.552979   -3.586005 H        1 UNL1     0.0279
     78 H         8.021253   -5.387887   -1.574322 H        1 UNL1     0.1553
     79 H         7.073206   -3.904943   -0.664206 H        1 UNL1     0.1484
     80 H         3.822001   -3.341963   1.220526 H        1 UNL1     0.0317
     81 H         4.295146   -4.91303   0.589804 H        1 UNL1     0.0317
     82 H         6.683592   -4.524214   1.251507 H        1 UNL1     0.0428
     83 H         5.578557   -4.399394   2.60244 H        1 UNL1     0.0428
     84 H         6.891468   -0.740741   0.872221 H        1 UNL1     0.0428
     85 H         7.534899   -2.190485   0.184209 H        1 UNL1     0.0428
     86 H         5.635701   -1.112354   -1.022246 H        1 UNL1     0.0317
     87 H         4.573783   -1.27432   0.300043 H        1 UNL1     0.0317
     88 H         8.047962   -3.186464   2.82481 H        1 UNL1     0.0429
     89 H         7.770465   -1.448505   2.961661 H        1 UNL1     0.0429
     90 H         6.036196   -3.626325   4.280022 H        1 UNL1     0.0308
     91 H         8.362283   -3.559031   5.266785 H        1 UNL1     0.0233
     92 H         8.134799   -1.824332   5.605264 H        1 UNL1     0.0233
     93 H         7.158172   -3.019739   6.430978 H        1 UNL1     0.0233
     94 H         5.725137   -0.742643   3.951785 H        1 UNL1     0.0233
     95 H         4.552581   -1.991358   4.399169 H        1 UNL1     0.0233
     96 H         5.597419   -1.267236   5.643336 H        1 UNL1     0.0233
     97 H         1.929393   -8.203469   -6.905834 H        1 UNL1     0.0280
     98 H         1.455842   -9.030416   -5.446692 H        1 UNL1     0.0280
     99 H         0.524808   -7.607564   -6.002027 H        1 UNL1     0.0280
     100 H         4.421844   -9.216362   -4.38669 H        1 UNL1     0.2922
     101 H         2.534764   1.997645   -3.875952 H        1 UNL1     0.0236
     102 H         3.293404   0.883614   -5.079888 H        1 UNL1     0.0236
     103 H         4.258836   1.898787   -4.053797 H        1 UNL1     0.0236
     104 H         2.780772   2.637383   -2.173179 H        1 UNL1     0.2098
     105 H         0.814464   1.336993   0.748255 H        1 UNL1     0.0234
     106 H         -0.934544   1.354438   0.385264 H        1 UNL1     0.0234
     107 H         -0.0   0.0   0.0 H        1 UNL1     0.0234
     108 H         0.013664   0.448451   -3.548121 H        1 UNL1     0.2098
     109 H         -0.257407   -1.483955   -0.877094 H        1 UNL1     0.0234
     110 H         -0.897593   -1.378334   0.793777 H        1 UNL1     0.0234
     111 H         -1.068807   -2.837396   -0.117633 H        1 UNL1     0.0234
     112 H         -2.874671   2.902976   3.204296 H        1 UNL1     0.0342
     113 H         -4.544777   2.452767   2.708015 H        1 UNL1     0.0342
     114 H         -3.392671   1.20793   3.198936 H        1 UNL1     0.0342
     115 H         -4.80795   1.601539   -2.162287 H        1 UNL1     0.0234
     116 H         -3.754521   2.251881   -3.422497 H        1 UNL1     0.0234
     117 H         -4.05235   0.512036   -3.227859 H        1 UNL1     0.0234
     118 H         -0.128674   -4.799467   -1.856448 H        1 UNL1     0.0309
     119 H         -1.495218   -5.255244   -2.920819 H        1 UNL1     0.0309
     120 H         -0.084793   -6.276391   -2.747279 H        1 UNL1     0.0309
     121 H         -4.572134   -0.864433   -4.758228 H        1 UNL1     0.0524
     122 H         -3.294856   -2.065784   -4.986641 H        1 UNL1     0.0524
     123 H         -4.640326   -2.411367   -3.871283 H        1 UNL1     0.0524
@<TRIPOS>BOND
     1     1     2    1
     2     1    42    1
     3     2     3    2
     4     3     4    1
     5     4     5    2
     6     5     7    1
     7     6    75    1
     8     6    76    1
     9     6    77    1
    10     7     9   am
    11     9    10    1
    12    10    11    2
    13    10    43    1
    14    11    14    1
    15    11    15    1
    16    12    13   ar
    17    12    27   ar
    18    12    43    1
    19    13    14    1
    20    13    30   ar
    21    14    17    2
    22    15    16    1
    23    16    17    1
    24    16    18    1
    25    16    22    1
    26    18    19    1
    27    19    20    1
    28    20    21    1
    29    21    22    1
    30    23    24    1
    31    23    88    1
    32    23    89    1
    33    24    25    1
    34    24    26    1
    35    24    90    1
    36    25    91    1
    37    25    92    1
    38    25    93    1
    39    26    94    1
    40    26    95    1
    41    26    96    1
    42    27    28   ar
    43    28    29   ar
    44    29    30   ar
    45    29    31    1
    46    30    33    1
    47    31    32    1
    48    32    33    1
    49    32    35    1
    50    34    97    1
    51    34    98    1
    52    34    99    1
    53    35    61    1
    54    36    37    1
    55    36    60    1
    56    37    38    1
    57    38    39    1
    58    39    40    1
    59    40    41    1
    60    41    42    1
    61    45   100    1
    62    47   101    1
    63    47   102    1
    64    47   103    1
    65    48   104    1
    66    49   105    1
    67    49   106    1
    68    49   107    1
    69    50   108    1
    70    51    59    1
    71    52   109    1
    72    52   110    1
    73    52   111    1
    74    53    54    1
    75    54    55    2
    76    54    56    1
    77    56   112    1
    78    56   113    1
    79    56   114    1
    80    57   115    1
    81    57   116    1
    82    57   117    1
    83    58   118    1
    84    58   119    1
    85    58   120    1
    86    59   121    1
    87    59   122    1
    88    59   123    1
    89    60    61    2
    90     1    47    1
    91     1    62    1
    92     2    63    1
    93     3    64    1
    94     4    65    1
    95     5     6    1
    96     7     8    2
    97     9    78    1
    98    15    79    1
    99    18    80    1
   100    18    81    1
   101    19    82    1
   102    19    83    1
   103    20    23    1
   104    21    84    1
   105    21    85    1
   106    22    86    1
   107    22    87    1
   108    27    45    1
   109    28    34    1
   110    32    58    1
   111    33    46    2
   112    36    51    1
   113    36    66    1
   114    37    52    1
   115    37    67    1
   116    38    53    1
   117    38    68    1
   118    42    48    1
   119    42    72    1
   120    43    44    2
   121    60    73    1
   122    61    74    1
   123    39    69    1
   124    39    57    1
   125    40    70    1
   126    40    50    1
   127    41    71    1
   128    41    49    1
