@<TRIPOS>MOLECULE
*****
 123 128 0 0 0
SMALL
GASTEIGER

@<TRIPOS>ATOM
     1 C         4.749371   2.620453   -0.758929 C.3        1 UNL1     0.0009
     2 C         6.209167   2.862708   -1.875776 C.2        1 UNL1     -0.0787
     3 C         7.592223   2.596338   -2.210811 C.2        1 UNL1     -0.0649
     4 C         8.437835   3.075019   -3.597232 C.2        1 UNL1     -0.0542
     5 C         9.567713   2.821491   -4.413429 C.2        1 UNL1     0.0115
     6 C         10.899361   2.026639   -4.504248 C.3        1 UNL1     -0.0348
     7 C         9.59328   3.406407   -5.908156 C.2        1 UNL1     0.2441
     8 O         10.23217   4.401121   -6.222623 O.2        1 UNL1     -0.2702
     9 N         9.046402   2.554425   -6.883452 N.am        1 UNL1     -0.2772
     10 C         7.691439   2.764239   -6.999112 C.2        1 UNL1     0.1049
     11 C         6.928671   2.139954   -6.120092 C.2        1 UNL1     0.0801
     12 C         5.978891   4.568599   -7.261405 C.ar        1 UNL1     0.0753
     13 C         5.291487   3.968195   -6.158863 C.ar        1 UNL1     0.0305
     14 C         5.677008   2.658377   -5.638476 C.2        1 UNL1     0.0924
     15 N         7.235141   1.161119   -5.251481 N.pl3        1 UNL1     -0.3170
     16 C         6.009972   0.712347   -4.645002 C.3        1 UNL1     0.1275
     17 N         5.098786   1.914196   -4.699978 N.2        1 UNL1     -0.2557
     18 C         5.397186   -0.326745   -5.57907 C.3        1 UNL1     0.0016
     19 C         6.41852   -1.427061   -5.81943 C.3        1 UNL1     0.0026
     20 N         6.776976   -2.020467   -4.538646 N.3        1 UNL1     -0.3018
     21 C         7.318805   -1.08568   -3.550231 C.3        1 UNL1     0.0026
     22 C         6.274771   0.008472   -3.320619 C.3        1 UNL1     0.0016
     23 C         7.507947   -3.26419   -4.67821 C.3        1 UNL1     0.0012
     24 C         6.585794   -4.374637   -5.205751 C.3        1 UNL1     -0.0339
     25 C         6.764311   -4.582404   -6.718702 C.3        1 UNL1     -0.0615
     26 C         6.823998   -5.66029   -4.433005 C.3        1 UNL1     -0.0615
     27 C         5.531231   5.759145   -7.829135 C.ar        1 UNL1     0.1347
     28 C         4.390144   6.418119   -7.407561 C.ar        1 UNL1     0.0342
     29 C         3.757337   5.834741   -6.289353 C.ar        1 UNL1     0.1435
     30 C         4.214997   4.661989   -5.68734 C.ar        1 UNL1     0.0774
     31 O         2.573941   6.295978   -5.829088 O.3        1 UNL1     -0.4436
     32 C         2.041467   5.214315   -5.049762 C.3        1 UNL1     0.3143
     33 C         3.244745   4.38516   -4.648715 C.2        1 UNL1     0.2504
     34 C         3.712064   7.55298   -8.12338 C.3        1 UNL1     -0.0327
     35 O         1.504778   5.77949   -3.84735 O.2        1 UNL1     -0.4528
     36 C         -1.360858   3.51196   -2.820451 C.3        1 UNL1     0.0854
     37 C         -1.347756   1.96375   -2.519789 C.3        1 UNL1     0.0236
     38 C         -1.925709   1.549498   -1.082392 C.3        1 UNL1     0.1131
     39 C         -1.387648   2.271721   0.218051 C.3        1 UNL1     0.0200
     40 C         0.244434   2.55623   0.412474 C.3        1 UNL1     0.0661
     41 C         1.482749   1.41393   0.214139 C.3        1 UNL1     0.0091
     42 C         3.208405   1.619454   -0.373461 C.3        1 UNL1     0.0661
     43 C         7.132728   3.834885   -7.838107 C.2        1 UNL1     0.2131
     44 O         7.545445   4.012204   -8.969901 O.2        1 UNL1     -0.2851
     45 O         6.283615   6.30074   -8.869343 O.3        1 UNL1     -0.5056
     46 O         3.380077   3.673745   -3.678443 O.2        1 UNL1     -0.2836
     47 C         4.929126   3.437948   0.5485 C.3        1 UNL1     -0.0566
     48 O         3.79965   0.825847   0.730955 O.3        1 UNL1     -0.3909
     49 C         0.918623   0.199894   -0.489688 C.3        1 UNL1     -0.0577
     50 O         0.615036   3.780058   -0.189706 O.3        1 UNL1     -0.3910
     51 O         -1.709455   4.346587   -1.739105 O.3        1 UNL1     -0.3753
     52 C         -0.101675   1.259364   -3.149131 C.3        1 UNL1     -0.0564
     53 O         -2.228849   0.085077   -0.956288 O.3        1 UNL1     -0.4608
     54 C         -2.363284   -0.600429   0.222669 C.2        1 UNL1     0.3042
     55 O         -1.609215   -1.459959   0.677011 O.2        1 UNL1     -0.2512
     56 C         -3.552818   -0.173108   1.034532 C.3        1 UNL1     0.0332
     57 C         -2.397945   3.463318   0.560939 C.3        1 UNL1     -0.0567
     58 C         1.157158   4.38031   -6.005777 C.3        1 UNL1     0.0210
     59 C         -2.288554   5.596934   -2.109428 C.3        1 UNL1     0.0372
     60 C         -0.096511   4.052698   -3.389827 C.2        1 UNL1     -0.0208
     61 C         0.586983   5.156258   -3.083662 C.2        1 UNL1     0.0882
     62 H         4.151844   3.241803   -1.436866 H        1 UNL1     0.0365
     63 H         5.804861   3.588142   -2.584826 H        1 UNL1     0.0576
     64 H         8.193886   1.887713   -1.637261 H        1 UNL1     0.0615
     65 H         7.790961   3.832193   -4.048591 H        1 UNL1     0.0622
     66 H         -2.121108   3.634406   -3.604718 H        1 UNL1     0.0645
     67 H         -2.119953   1.553289   -3.193432 H        1 UNL1     0.0362
     68 H         -2.965707   1.891303   -1.196829 H        1 UNL1     0.0741
     69 H         -1.626177   1.661528   1.078967 H        1 UNL1     0.0359
     70 H         0.273836   2.762729   1.499467 H        1 UNL1     0.0600
     71 H         1.570112   1.041131   1.253536 H        1 UNL1     0.0348
     72 H         2.870908   2.620429   -0.067748 H        1 UNL1     0.0602
     73 H         0.181374   3.473883   -4.235404 H        1 UNL1     0.0628
     74 H         0.402707   5.771031   -2.201996 H        1 UNL1     0.1022
     75 H         11.03297   1.381304   -3.602735 H        1 UNL1     0.0279
     76 H         10.982551   1.31095   -5.319071 H        1 UNL1     0.0279
     77 H         11.786231   2.674046   -4.440796 H        1 UNL1     0.0279
     78 H         9.183661   1.584675   -6.606285 H        1 UNL1     0.1553
     79 H         8.04663   0.576717   -5.334512 H        1 UNL1     0.1484
     80 H         4.482027   -0.722549   -5.122354 H        1 UNL1     0.0317
     81 H         5.101228   0.128386   -6.53034 H        1 UNL1     0.0317
     82 H         7.308651   -1.048921   -6.343441 H        1 UNL1     0.0428
     83 H         5.961703   -2.15625   -6.489246 H        1 UNL1     0.0428
     84 H         7.504853   -1.540444   -2.572281 H        1 UNL1     0.0428
     85 H         8.299556   -0.693587   -3.853063 H        1 UNL1     0.0428
     86 H         6.645705   0.595159   -2.500745 H        1 UNL1     0.0317
     87 H         5.352698   -0.431307   -2.92128 H        1 UNL1     0.0317
     88 H         8.315572   -3.105987   -5.404851 H        1 UNL1     0.0429
     89 H         7.979867   -3.557733   -3.731692 H        1 UNL1     0.0429
     90 H         5.542757   -4.097599   -5.012008 H        1 UNL1     0.0308
     91 H         7.803037   -4.819253   -6.967809 H        1 UNL1     0.0233
     92 H         6.117247   -5.386385   -7.077217 H        1 UNL1     0.0233
     93 H         6.493687   -3.690983   -7.297464 H        1 UNL1     0.0233
     94 H         6.315334   -6.49641   -4.92494 H        1 UNL1     0.0233
     95 H         7.893614   -5.886253   -4.404296 H        1 UNL1     0.0233
     96 H         6.451611   -5.584352   -3.407563 H        1 UNL1     0.0233
     97 H         2.805426   7.870445   -7.616966 H        1 UNL1     0.0280
     98 H         4.350223   8.444233   -8.184028 H        1 UNL1     0.0280
     99 H         3.444758   7.237605   -9.145232 H        1 UNL1     0.0280
     100 H         5.795939   6.477301   -9.654595 H        1 UNL1     0.2922
     101 H         4.042234   3.332449   1.172958 H        1 UNL1     0.0236
     102 H         5.181438   4.482606   0.369583 H        1 UNL1     0.0236
     103 H         5.755375   3.051465   1.168288 H        1 UNL1     0.0236
     104 H         4.06189   1.450352   1.435365 H        1 UNL1     0.2098
     105 H         0.707022   0.350698   -1.545289 H        1 UNL1     0.0234
     106 H         1.490979   -0.716496   -0.346289 H        1 UNL1     0.0234
     107 H         0.0   -0.0   0.0 H        1 UNL1     0.0234
     108 H         0.484187   3.681014   -1.15243 H        1 UNL1     0.2098
     109 H         0.844293   1.679318   -2.779681 H        1 UNL1     0.0234
     110 H         -0.102035   0.173687   -3.004048 H        1 UNL1     0.0234
     111 H         -0.075407   1.382133   -4.240087 H        1 UNL1     0.0234
     112 H         -3.589806   -0.742112   1.968454 H        1 UNL1     0.0342
     113 H         -3.552059   0.898255   1.229531 H        1 UNL1     0.0342
     114 H         -4.46089   -0.40655   0.461755 H        1 UNL1     0.0342
     115 H         -3.422195   3.097949   0.717802 H        1 UNL1     0.0234
     116 H         -2.117575   4.043244   1.442487 H        1 UNL1     0.0234
     117 H         -2.548501   4.166933   -0.27584 H        1 UNL1     0.0234
     118 H         0.144748   4.807618   -6.112732 H        1 UNL1     0.0309
     119 H         1.59921   4.253628   -6.999127 H        1 UNL1     0.0309
     120 H         0.966227   3.369989   -5.627751 H        1 UNL1     0.0309
     121 H         -1.533025   6.161444   -2.655194 H        1 UNL1     0.0524
     122 H         -3.157717   5.474115   -2.776893 H        1 UNL1     0.0524
     123 H         -2.598616   6.144497   -1.223916 H        1 UNL1     0.0524
@<TRIPOS>BOND
     1     1     2    1
     2     1    42    1
     3     2     3    2
     4     3     4    1
     5     4     5    2
     6     5     7    1
     7     6    75    1
     8     6    76    1
     9     6    77    1
    10     7     9   am
    11     9    10    1
    12    10    11    2
    13    10    43    1
    14    11    14    1
    15    11    15    1
    16    12    13   ar
    17    12    27   ar
    18    12    43    1
    19    13    14    1
    20    13    30   ar
    21    14    17    2
    22    15    16    1
    23    16    17    1
    24    16    18    1
    25    16    22    1
    26    18    19    1
    27    19    20    1
    28    20    21    1
    29    21    22    1
    30    23    24    1
    31    23    88    1
    32    23    89    1
    33    24    25    1
    34    24    26    1
    35    24    90    1
    36    25    91    1
    37    25    92    1
    38    25    93    1
    39    26    94    1
    40    26    95    1
    41    26    96    1
    42    27    28   ar
    43    28    29   ar
    44    29    30   ar
    45    29    31    1
    46    30    33    1
    47    31    32    1
    48    32    33    1
    49    32    35    1
    50    34    97    1
    51    34    98    1
    52    34    99    1
    53    35    61    1
    54    36    37    1
    55    36    60    1
    56    37    38    1
    57    38    39    1
    58    39    40    1
    59    40    41    1
    60    41    42    1
    61    45   100    1
    62    47   101    1
    63    47   102    1
    64    47   103    1
    65    48   104    1
    66    49   105    1
    67    49   106    1
    68    49   107    1
    69    50   108    1
    70    51    59    1
    71    52   109    1
    72    52   110    1
    73    52   111    1
    74    53    54    1
    75    54    55    2
    76    54    56    1
    77    56   112    1
    78    56   113    1
    79    56   114    1
    80    57   115    1
    81    57   116    1
    82    57   117    1
    83    58   118    1
    84    58   119    1
    85    58   120    1
    86    59   121    1
    87    59   122    1
    88    59   123    1
    89    60    61    2
    90     1    47    1
    91     1    62    1
    92     2    63    1
    93     3    64    1
    94     4    65    1
    95     5     6    1
    96     7     8    2
    97     9    78    1
    98    15    79    1
    99    18    80    1
   100    18    81    1
   101    19    82    1
   102    19    83    1
   103    20    23    1
   104    21    84    1
   105    21    85    1
   106    22    86    1
   107    22    87    1
   108    27    45    1
   109    28    34    1
   110    32    58    1
   111    33    46    2
   112    36    51    1
   113    36    66    1
   114    37    52    1
   115    37    67    1
   116    38    53    1
   117    38    68    1
   118    42    48    1
   119    42    72    1
   120    43    44    2
   121    60    73    1
   122    61    74    1
   123    39    69    1
   124    39    57    1
   125    40    70    1
   126    40    50    1
   127    41    71    1
   128    41    49    1
