@<TRIPOS>MOLECULE
*****
 123 128 0 0 0
SMALL
GASTEIGER

@<TRIPOS>ATOM
     1 C         0.175395   3.976878   -1.64674 C.3        1 UNL1     0.0009
     2 C         -1.08206   4.832111   -2.707128 C.2        1 UNL1     -0.0787
     3 C         -1.50087   5.34072   -3.996298 C.2        1 UNL1     -0.0649
     4 C         -2.999954   6.00684   -4.415092 C.2        1 UNL1     -0.0542
     5 C         -3.874911   6.315606   -5.485696 C.2        1 UNL1     0.0115
     6 C         -3.98704   6.398838   -7.032894 C.3        1 UNL1     -0.0348
     7 C         -5.423557   6.594146   -5.167731 C.2        1 UNL1     0.2441
     8 O         -5.903237   7.718865   -5.129782 O.2        1 UNL1     -0.2702
     9 N         -6.244618   5.453388   -5.193847 N.am        1 UNL1     -0.2772
     10 C         -6.267792   4.85001   -3.957434 C.2        1 UNL1     0.1049
     11 C         -5.261268   4.038964   -3.686627 C.2        1 UNL1     0.0801
     12 C         -6.588469   5.327436   -1.52298 C.ar        1 UNL1     0.0753
     13 C         -5.369868   4.609954   -1.301986 C.ar        1 UNL1     0.0305
     14 C         -4.737465   3.830573   -2.36391 C.2        1 UNL1     0.0924
     15 N         -4.315427   3.535263   -4.497921 N.pl3        1 UNL1     -0.3170
     16 C         -3.559406   2.569879   -3.745112 C.3        1 UNL1     0.1275
     17 N         -3.674037   3.033392   -2.313421 N.2        1 UNL1     -0.2557
     18 C         -4.312599   1.245367   -3.823013 C.3        1 UNL1     0.0016
     19 C         -4.511295   0.884236   -5.286466 C.3        1 UNL1     0.0026
     20 N         -3.206121   0.783114   -5.924685 N.3        1 UNL1     -0.3018
     21 C         -2.38114   1.990522   -5.84761 C.3        1 UNL1     0.0026
     22 C         -2.190441   2.332385   -4.368875 C.3        1 UNL1     0.0016
     23 C         -3.263893   0.156814   -7.230462 C.3        1 UNL1     0.0012
     24 C         -4.352587   0.812404   -8.094583 C.3        1 UNL1     -0.0339
     25 C         -5.021547   -0.210217   -9.027747 C.3        1 UNL1     -0.0615
     26 C         -5.370127   1.510522   -7.209132 C.3        1 UNL1     -0.0615
     27 C         -7.248766   5.967915   -0.477077 C.ar        1 UNL1     0.1347
     28 C         -6.809917   5.927577   0.834348 C.ar        1 UNL1     0.0342
     29 C         -5.582411   5.256781   1.019885 C.ar        1 UNL1     0.1435
     30 C         -4.891075   4.641318   -0.024376 C.ar        1 UNL1     0.0774
     31 O         -5.078995   5.036855   2.254069 O.3        1 UNL1     -0.4436
     32 C         -4.138311   3.967031   2.076693 C.3        1 UNL1     0.3143
     33 C         -3.748753   4.020619   0.613277 C.2        1 UNL1     0.2504
     34 C         -7.590783   6.37253   2.039489 C.3        1 UNL1     -0.0327
     35 O         -2.967329   4.299735   2.832577 O.2        1 UNL1     -0.4528
     36 C         -1.447013   0.991554   3.906204 C.3        1 UNL1     0.0854
     37 C         -0.973045   -0.222196   3.017561 C.3        1 UNL1     0.0236
     38 C         0.546318   -0.678672   3.251885 C.3        1 UNL1     0.1131
     39 C         1.704823   0.397613   3.210092 C.3        1 UNL1     0.0200
     40 C         1.725686   1.570868   2.024564 C.3        1 UNL1     0.0661
     41 C         1.554924   1.30287   0.358243 C.3        1 UNL1     0.0091
     42 C         0.802868   2.352403   -0.944944 C.3        1 UNL1     0.0661
     43 C         -7.173372   5.291751   -2.886386 C.2        1 UNL1     0.2131
     44 O         -8.349034   5.505943   -3.120219 O.2        1 UNL1     -0.2851
     45 O         -8.404461   6.682639   -0.785259 O.3        1 UNL1     -0.5056
     46 O         -2.718382   3.653993   0.093877 O.2        1 UNL1     -0.2836
     47 C         1.360395   4.931452   -1.339259 C.3        1 UNL1     -0.0566
     48 O         1.936617   2.192922   -1.887439 O.3        1 UNL1     -0.3909
     49 C         1.045528   -0.104387   0.139982 C.3        1 UNL1     -0.0577
     50 O         0.957813   2.691462   2.414903 O.3        1 UNL1     -0.3910
     51 O         -0.442762   1.632213   4.660171 O.3        1 UNL1     -0.3753
     52 C         -1.621265   -0.189835   1.594988 C.3        1 UNL1     -0.0564
     53 O         0.864835   -2.02588   2.672311 O.3        1 UNL1     -0.4608
     54 C         1.928484   -2.308954   1.855948 C.2        1 UNL1     0.3042
     55 O         1.912584   -2.464914   0.635594 O.2        1 UNL1     -0.2512
     56 C         3.243207   -2.369079   2.580242 C.3        1 UNL1     0.0332
     57 C         1.993591   0.854074   4.715559 C.3        1 UNL1     -0.0567
     58 C         -4.913622   2.654893   2.338828 C.3        1 UNL1     0.0210
     59 C         0.350598   2.566774   3.930074 C.3        1 UNL1     0.0372
     60 C         -2.18019   2.059237   3.172947 C.2        1 UNL1     -0.0208
     61 C         -2.061876   3.386344   3.232403 C.2        1 UNL1     0.0882
     62 H         -0.515961   4.05307   -0.798841 H        1 UNL1     0.0365
     63 H         -1.832594   5.096956   -1.959448 H        1 UNL1     0.0576
     64 H         -0.903177   5.180694   -4.896444 H        1 UNL1     0.0615
     65 H         -3.478425   6.198642   -3.450852 H        1 UNL1     0.0622
     66 H         -2.172556   0.554207   4.606461 H        1 UNL1     0.0645
     67 H         -1.526982   -1.085518   3.425469 H        1 UNL1     0.0362
     68 H         0.482407   -0.997878   4.303334 H        1 UNL1     0.0741
     69 H         2.647181   -0.111173   3.056781 H        1 UNL1     0.0359
     70 H         2.77536   1.911027   2.111377 H        1 UNL1     0.0600
     71 H         2.618973   1.195719   0.069665 H        1 UNL1     0.0348
     72 H         1.019419   3.024397   -0.101828 H        1 UNL1     0.0602
     73 H         -2.974398   1.621506   2.620794 H        1 UNL1     0.0628
     74 H         -1.244043   3.910961   3.727542 H        1 UNL1     0.1022
     75 H         -2.979896   6.299109   -7.504859 H        1 UNL1     0.0279
     76 H         -4.553866   5.609438   -7.521387 H        1 UNL1     0.0279
     77 H         -4.293349   7.395097   -7.384096 H        1 UNL1     0.0279
     78 H         -5.870795   4.778022   -5.857334 H        1 UNL1     0.1553
     79 H         -4.399692   3.500366   -5.497228 H        1 UNL1     0.1484
     80 H         -3.737272   0.475323   -3.295001 H        1 UNL1     0.0317
     81 H         -5.281104   1.315592   -3.31634 H        1 UNL1     0.0317
     82 H         -5.149072   1.616252   -5.803482 H        1 UNL1     0.0428
     83 H         -5.051753   -0.062284   -5.31897 H        1 UNL1     0.0428
     84 H         -1.376912   1.862904   -6.263606 H        1 UNL1     0.0428
     85 H         -2.809318   2.816199   -6.432622 H        1 UNL1     0.0428
     86 H         -1.477814   3.135922   -4.347022 H        1 UNL1     0.0317
     87 H         -1.666273   1.514381   -3.859743 H        1 UNL1     0.0317
     88 H         -2.293023   0.301843   -7.722065 H        1 UNL1     0.0429
     89 H         -3.423414   -0.925918   -7.146692 H        1 UNL1     0.0429
     90 H         -3.8987   1.599983   -8.707705 H        1 UNL1     0.0308
     91 H         -5.276906   -1.129644   -8.492446 H        1 UNL1     0.0233
     92 H         -5.926796   0.208248   -9.473864 H        1 UNL1     0.0233
     93 H         -4.373582   -0.498653   -9.864277 H        1 UNL1     0.0233
     94 H         -6.316241   1.635249   -7.746858 H        1 UNL1     0.0233
     95 H         -5.565836   0.907742   -6.317888 H        1 UNL1     0.0233
     96 H         -5.017196   2.497502   -6.897238 H        1 UNL1     0.0233
     97 H         -8.307507   7.151122   1.795906 H        1 UNL1     0.0280
     98 H         -8.174627   5.553664   2.479762 H        1 UNL1     0.0280
     99 H         -6.899386   6.765782   2.802651 H        1 UNL1     0.0280
     100 H         -8.323766   7.256762   -1.526537 H        1 UNL1     0.2922
     101 H         2.24111   4.349111   -1.069304 H        1 UNL1     0.0236
     102 H         1.121267   5.683425   -0.588035 H        1 UNL1     0.0236
     103 H         1.668055   5.508964   -2.226963 H        1 UNL1     0.0236
     104 H         2.600963   2.875105   -1.6678 H        1 UNL1     0.2098
     105 H         1.451393   -0.597538   -0.739726 H        1 UNL1     0.0234
     106 H         1.124492   -0.757189   1.009201 H        1 UNL1     0.0234
     107 H         -0.0   0.0   0.0 H        1 UNL1     0.0234
     108 H         1.547733   3.287086   2.915897 H        1 UNL1     0.2098
     109 H         -2.155017   -1.121233   1.359791 H        1 UNL1     0.0234
     110 H         -2.291238   0.663902   1.446621 H        1 UNL1     0.0234
     111 H         -0.864316   -0.07414   0.807848 H        1 UNL1     0.0234
     112 H         4.066718   -2.320055   1.861373 H        1 UNL1     0.0342
     113 H         3.333151   -1.585818   3.331412 H        1 UNL1     0.0342
     114 H         3.305575   -3.335934   3.098379 H        1 UNL1     0.0342
     115 H         3.056566   1.08042   4.87693 H        1 UNL1     0.0234
     116 H         1.420117   1.727453   5.032398 H        1 UNL1     0.0234
     117 H         1.831383   0.052865   5.456972 H        1 UNL1     0.0234
     118 H         -5.145859   2.51736   3.409415 H        1 UNL1     0.0309
     119 H         -5.839027   2.579516   1.759047 H        1 UNL1     0.0309
     120 H         -4.327106   1.763421   2.091072 H        1 UNL1     0.0309
     121 H         1.317379   2.638146   4.427665 H        1 UNL1     0.0524
     122 H         0.534286   2.239519   2.893156 H        1 UNL1     0.0524
     123 H         -0.134516   3.5386   3.912387 H        1 UNL1     0.0524
@<TRIPOS>BOND
     1     1     2    1
     2     1    42    1
     3     2     3    2
     4     3     4    1
     5     4     5    2
     6     5     7    1
     7     6    75    1
     8     6    76    1
     9     6    77    1
    10     7     9   am
    11     9    10    1
    12    10    11    2
    13    10    43    1
    14    11    14    1
    15    11    15    1
    16    12    13   ar
    17    12    27   ar
    18    12    43    1
    19    13    14    1
    20    13    30   ar
    21    14    17    2
    22    15    16    1
    23    16    17    1
    24    16    18    1
    25    16    22    1
    26    18    19    1
    27    19    20    1
    28    20    21    1
    29    21    22    1
    30    23    24    1
    31    23    88    1
    32    23    89    1
    33    24    25    1
    34    24    26    1
    35    24    90    1
    36    25    91    1
    37    25    92    1
    38    25    93    1
    39    26    94    1
    40    26    95    1
    41    26    96    1
    42    27    28   ar
    43    28    29   ar
    44    29    30   ar
    45    29    31    1
    46    30    33    1
    47    31    32    1
    48    32    33    1
    49    32    35    1
    50    34    97    1
    51    34    98    1
    52    34    99    1
    53    35    61    1
    54    36    37    1
    55    36    60    1
    56    37    38    1
    57    38    39    1
    58    39    40    1
    59    40    41    1
    60    41    42    1
    61    45   100    1
    62    47   101    1
    63    47   102    1
    64    47   103    1
    65    48   104    1
    66    49   105    1
    67    49   106    1
    68    49   107    1
    69    50   108    1
    70    51    59    1
    71    52   109    1
    72    52   110    1
    73    52   111    1
    74    53    54    1
    75    54    55    2
    76    54    56    1
    77    56   112    1
    78    56   113    1
    79    56   114    1
    80    57   115    1
    81    57   116    1
    82    57   117    1
    83    58   118    1
    84    58   119    1
    85    58   120    1
    86    59   121    1
    87    59   122    1
    88    59   123    1
    89    60    61    2
    90     1    47    1
    91     1    62    1
    92     2    63    1
    93     3    64    1
    94     4    65    1
    95     5     6    1
    96     7     8    2
    97     9    78    1
    98    15    79    1
    99    18    80    1
   100    18    81    1
   101    19    82    1
   102    19    83    1
   103    20    23    1
   104    21    84    1
   105    21    85    1
   106    22    86    1
   107    22    87    1
   108    27    45    1
   109    28    34    1
   110    32    58    1
   111    33    46    2
   112    36    51    1
   113    36    66    1
   114    37    52    1
   115    37    67    1
   116    38    53    1
   117    38    68    1
   118    42    48    1
   119    42    72    1
   120    43    44    2
   121    60    73    1
   122    61    74    1
   123    39    69    1
   124    39    57    1
   125    40    70    1
   126    40    50    1
   127    41    71    1
   128    41    49    1
