@<TRIPOS>MOLECULE
*****
 123 128 0 0 0
SMALL
GASTEIGER

@<TRIPOS>ATOM
     1 C         2.382044   -0.546669   3.329857 C.3        1 UNL1     0.0009
     2 C         1.849977   -0.883751   5.073507 C.2        1 UNL1     -0.0787
     3 C         1.515515   -0.407221   6.399064 C.2        1 UNL1     -0.0649
     4 C         0.91605   -1.301374   7.705773 C.2        1 UNL1     -0.0542
     5 C         0.230839   -1.231154   8.943768 C.2        1 UNL1     0.0115
     6 C         -0.301636   -0.258643   10.031894 C.3        1 UNL1     -0.0348
     7 C         -0.425322   -2.567011   9.545372 C.2        1 UNL1     0.2441
     8 O         0.086366   -3.209794   10.451755 O.2        1 UNL1     -0.2702
     9 N         -1.751248   -2.804561   9.143326 N.am        1 UNL1     -0.2772
     10 C         -1.775859   -3.517669   7.966809 C.2        1 UNL1     0.1049
     11 C         -1.634478   -2.815239   6.857383 C.2        1 UNL1     0.0801
     12 C         -0.81558   -5.541478   6.853528 C.ar        1 UNL1     0.0753
     13 C         -0.49319   -4.686132   5.752141 C.ar        1 UNL1     0.0305
     14 C         -1.010979   -3.322537   5.665211 C.2        1 UNL1     0.0924
     15 N         -1.678083   -1.485675   6.665327 N.pl3        1 UNL1     -0.3170
     16 C         -1.638808   -1.245022   5.247301 C.3        1 UNL1     0.1275
     17 N         -0.898792   -2.433054   4.682785 N.2        1 UNL1     -0.2557
     18 C         -3.070223   -1.353112   4.730512 C.3        1 UNL1     0.0016
     19 C         -3.942815   -0.380919   5.508338 C.3        1 UNL1     0.0026
     20 N         -3.420068   0.966058   5.325537 N.3        1 UNL1     -0.3018
     21 C         -2.027325   1.153631   5.737184 C.3        1 UNL1     0.0026
     22 C         -1.168184   0.170509   4.940163 C.3        1 UNL1     0.0016
     23 C         -4.339832   1.993342   5.772039 C.3        1 UNL1     0.0012
     24 C         -5.551326   2.077887   4.830291 C.3        1 UNL1     -0.0339
     25 C         -6.86589   1.803401   5.579048 C.3        1 UNL1     -0.0615
     26 C         -5.576132   3.427199   4.133497 C.3        1 UNL1     -0.0615
     27 C         -0.418858   -6.876556   6.870758 C.ar        1 UNL1     0.1347
     28 C         0.267137   -7.477118   5.830187 C.ar        1 UNL1     0.0342
     29 C         0.616151   -6.603433   4.778509 C.ar        1 UNL1     0.1435
     30 C         0.256951   -5.255105   4.764177 C.ar        1 UNL1     0.0774
     31 O         1.188973   -7.060246   3.643518 O.3        1 UNL1     -0.4436
     32 C         0.955097   -6.02479   2.677078 C.3        1 UNL1     0.3143
     33 C         0.741094   -4.76448   3.490733 C.2        1 UNL1     0.2504
     34 C         0.50432   -8.952525   5.665814 C.3        1 UNL1     -0.0327
     35 O         2.172026   -5.845292   1.942151 O.2        1 UNL1     -0.4528
     36 C         1.13462   -4.700437   -1.525007 C.3        1 UNL1     0.0854
     37 C         0.269409   -3.450092   -1.944018 C.3        1 UNL1     0.0236
     38 C         0.967688   -2.469413   -3.003461 C.3        1 UNL1     0.1131
     39 C         2.434376   -1.940749   -2.735859 C.3        1 UNL1     0.0200
     40 C         2.87826   -1.41303   -1.217005 C.3        1 UNL1     0.0661
     41 C         2.02052   -0.306042   -0.25968 C.3        1 UNL1     0.0091
     42 C         1.857654   -0.185432   1.563594 C.3        1 UNL1     0.0661
     43 C         -1.66354   -4.983546   7.936087 C.2        1 UNL1     0.2131
     44 O         -2.320017   -5.669807   8.698204 O.2        1 UNL1     -0.2851
     45 O         -0.733587   -7.628519   8.000774 O.3        1 UNL1     -0.5056
     46 O         0.945442   -3.615543   3.168181 O.2        1 UNL1     -0.2836
     47 C         3.896788   -0.209902   3.283812 C.3        1 UNL1     -0.0566
     48 O         2.130108   1.271657   1.605747 O.3        1 UNL1     -0.3909
     49 C         0.634401   -0.131252   -0.839004 C.3        1 UNL1     -0.0577
     50 O         3.327116   -2.492548   -0.422718 O.3        1 UNL1     -0.3910
     51 O         2.465547   -4.712271   -1.989682 O.3        1 UNL1     -0.3753
     52 C         -0.589598   -2.911657   -0.75358 C.3        1 UNL1     -0.0564
     53 O         0.015791   -1.502684   -3.645064 O.3        1 UNL1     -0.4608
     54 C         0.366198   -0.321586   -4.24519 C.2        1 UNL1     0.3042
     55 O         0.250396   0.813403   -3.784507 O.2        1 UNL1     -0.2512
     56 C         1.009134   -0.498535   -5.591308 C.3        1 UNL1     0.0332
     57 C         3.444518   -2.906174   -3.514154 C.3        1 UNL1     -0.0567
     58 C         -0.366584   -6.386118   1.960048 C.3        1 UNL1     0.0210
     59 C         3.036288   -6.011278   -2.140347 C.3        1 UNL1     0.0372
     60 C         1.188551   -4.965902   -0.061524 C.2        1 UNL1     -0.0208
     61 C         2.221755   -5.273467   0.723739 C.2        1 UNL1     0.0882
     62 H         2.293128   -1.618579   3.115811 H        1 UNL1     0.0365
     63 H         1.824139   -1.975445   5.071041 H        1 UNL1     0.0576
     64 H         1.469343   0.659578   6.6291 H        1 UNL1     0.0615
     65 H         1.080298   -2.340456   7.407753 H        1 UNL1     0.0622
     66 H         0.611048   -5.559344   -1.967949 H        1 UNL1     0.0645
     67 H         -0.547963   -3.880136   -2.548604 H        1 UNL1     0.0362
     68 H         1.056651   -3.156203   -3.858989 H        1 UNL1     0.0741
     69 H         2.60694   -1.067147   -3.350228 H        1 UNL1     0.0359
     70 H         3.799546   -0.854595   -1.47086 H        1 UNL1     0.0600
     71 H         2.507355   0.638307   -0.572975 H        1 UNL1     0.0348
     72 H         2.752217   -0.797769   1.37889 H        1 UNL1     0.0602
     73 H         0.199685   -5.005028   0.323004 H        1 UNL1     0.0628
     74 H         3.267571   -5.201666   0.423156 H        1 UNL1     0.1022
     75 H         0.482231   0.486963   10.308766 H        1 UNL1     0.0279
     76 H         -1.138448   0.375625   9.748136 H        1 UNL1     0.0279
     77 H         -0.478407   -0.755845   10.996904 H        1 UNL1     0.0279
     78 H         -2.221393   -1.917798   8.973943 H        1 UNL1     0.1553
     79 H         -2.092124   -0.842402   7.314714 H        1 UNL1     0.1484
     80 H         -3.080532   -1.129721   3.656847 H        1 UNL1     0.0317
     81 H         -3.450377   -2.374256   4.841868 H        1 UNL1     0.0317
     82 H         -3.994464   -0.644068   6.575108 H        1 UNL1     0.0428
     83 H         -4.959288   -0.475671   5.125121 H        1 UNL1     0.0428
     84 H         -1.635069   2.151116   5.515891 H        1 UNL1     0.0428
     85 H         -1.905567   1.054276   6.824667 H        1 UNL1     0.0428
     86 H         -0.149754   0.425915   5.16722 H        1 UNL1     0.0317
     87 H         -1.250557   0.384998   3.86764 H        1 UNL1     0.0317
     88 H         -4.694885   1.721505   6.774704 H        1 UNL1     0.0429
     89 H         -3.838794   2.965876   5.860985 H        1 UNL1     0.0429
     90 H         -5.440411   1.331823   4.034489 H        1 UNL1     0.0308
     91 H         -6.682149   1.30549   6.535827 H        1 UNL1     0.0233
     92 H         -7.410259   2.733667   5.757585 H        1 UNL1     0.0233
     93 H         -7.54403   1.156847   5.009023 H        1 UNL1     0.0233
     94 H         -6.473138   3.985295   4.422884 H        1 UNL1     0.0233
     95 H         -4.70301   4.01604   4.428262 H        1 UNL1     0.0233
     96 H         -5.575112   3.314645   3.045701 H        1 UNL1     0.0233
     97 H         -0.396417   -9.478929   5.364481 H        1 UNL1     0.0280
     98 H         1.251638   -9.167731   4.890921 H        1 UNL1     0.0280
     99 H         0.850705   -9.379327   6.6213 H        1 UNL1     0.0280
     100 H         -1.632084   -7.904032   8.049952 H        1 UNL1     0.2922
     101 H         4.451743   -1.064141   2.896568 H        1 UNL1     0.0236
     102 H         4.288978   0.132858   4.240726 H        1 UNL1     0.0236
     103 H         4.117594   0.609723   2.579786 H        1 UNL1     0.0236
     104 H         3.096391   1.388645   1.692814 H        1 UNL1     0.2098
     105 H         0.522203   0.739298   -1.480382 H        1 UNL1     0.0234
     106 H         0.231105   -1.016767   -1.330067 H        1 UNL1     0.0234
     107 H         -0.0   0.0   0.0 H        1 UNL1     0.0234
     108 H         2.861547   -3.293438   -0.731892 H        1 UNL1     0.2098
     109 H         0.030866   -2.582401   0.091599 H        1 UNL1     0.0234
     110 H         -1.270451   -2.104516   -1.044624 H        1 UNL1     0.0234
     111 H         -1.253717   -3.687663   -0.350211 H        1 UNL1     0.0234
     112 H         1.282241   0.477208   -6.004448 H        1 UNL1     0.0342
     113 H         1.872802   -1.160439   -5.548831 H        1 UNL1     0.0342
     114 H         0.272288   -0.955655   -6.266041 H        1 UNL1     0.0342
     115 H         2.918093   -3.568367   -4.215271 H        1 UNL1     0.0234
     116 H         4.217129   -2.379123   -4.07748 H        1 UNL1     0.0234
     117 H         3.942519   -3.641806   -2.85934 H        1 UNL1     0.0234
     118 H         -0.192979   -6.771557   0.940095 H        1 UNL1     0.0309
     119 H         -0.97423   -7.106678   2.516611 H        1 UNL1     0.0309
     120 H         -1.007273   -5.513073   1.794469 H        1 UNL1     0.0309
     121 H         3.472638   -6.292805   -1.182382 H        1 UNL1     0.0524
     122 H         2.281289   -6.772676   -2.397811 H        1 UNL1     0.0524
     123 H         3.80136   -5.998529   -2.911448 H        1 UNL1     0.0524
@<TRIPOS>BOND
     1     1     2    1
     2     1    42    1
     3     2     3    2
     4     3     4    1
     5     4     5    2
     6     5     7    1
     7     6    75    1
     8     6    76    1
     9     6    77    1
    10     7     9   am
    11     9    10    1
    12    10    11    2
    13    10    43    1
    14    11    14    1
    15    11    15    1
    16    12    13   ar
    17    12    27   ar
    18    12    43    1
    19    13    14    1
    20    13    30   ar
    21    14    17    2
    22    15    16    1
    23    16    17    1
    24    16    18    1
    25    16    22    1
    26    18    19    1
    27    19    20    1
    28    20    21    1
    29    21    22    1
    30    23    24    1
    31    23    88    1
    32    23    89    1
    33    24    25    1
    34    24    26    1
    35    24    90    1
    36    25    91    1
    37    25    92    1
    38    25    93    1
    39    26    94    1
    40    26    95    1
    41    26    96    1
    42    27    28   ar
    43    28    29   ar
    44    29    30   ar
    45    29    31    1
    46    30    33    1
    47    31    32    1
    48    32    33    1
    49    32    35    1
    50    34    97    1
    51    34    98    1
    52    34    99    1
    53    35    61    1
    54    36    37    1
    55    36    60    1
    56    37    38    1
    57    38    39    1
    58    39    40    1
    59    40    41    1
    60    41    42    1
    61    45   100    1
    62    47   101    1
    63    47   102    1
    64    47   103    1
    65    48   104    1
    66    49   105    1
    67    49   106    1
    68    49   107    1
    69    50   108    1
    70    51    59    1
    71    52   109    1
    72    52   110    1
    73    52   111    1
    74    53    54    1
    75    54    55    2
    76    54    56    1
    77    56   112    1
    78    56   113    1
    79    56   114    1
    80    57   115    1
    81    57   116    1
    82    57   117    1
    83    58   118    1
    84    58   119    1
    85    58   120    1
    86    59   121    1
    87    59   122    1
    88    59   123    1
    89    60    61    2
    90     1    47    1
    91     1    62    1
    92     2    63    1
    93     3    64    1
    94     4    65    1
    95     5     6    1
    96     7     8    2
    97     9    78    1
    98    15    79    1
    99    18    80    1
   100    18    81    1
   101    19    82    1
   102    19    83    1
   103    20    23    1
   104    21    84    1
   105    21    85    1
   106    22    86    1
   107    22    87    1
   108    27    45    1
   109    28    34    1
   110    32    58    1
   111    33    46    2
   112    36    51    1
   113    36    66    1
   114    37    52    1
   115    37    67    1
   116    38    53    1
   117    38    68    1
   118    42    48    1
   119    42    72    1
   120    43    44    2
   121    60    73    1
   122    61    74    1
   123    39    69    1
   124    39    57    1
   125    40    70    1
   126    40    50    1
   127    41    71    1
   128    41    49    1
