@<TRIPOS>MOLECULE
*****
 123 128 0 0 0
SMALL
GASTEIGER

@<TRIPOS>ATOM
     1 C         5.153545   0.158887   -1.785258 C.3        1 UNL1     0.0009
     2 C         6.257397   0.702111   -3.172145 C.2        1 UNL1     -0.0787
     3 C         7.083383   0.384792   -4.318051 C.2        1 UNL1     -0.0649
     4 C         7.839197   1.459699   -5.385608 C.2        1 UNL1     -0.0542
     5 C         8.416812   1.605681   -6.670959 C.2        1 UNL1     0.0115
     6 C         8.897852   0.829826   -7.927928 C.3        1 UNL1     -0.0348
     7 C         8.607741   3.081173   -7.273836 C.2        1 UNL1     0.2441
     8 O         9.685618   3.659516   -7.288867 O.2        1 UNL1     -0.2702
     9 N         7.514797   3.559625   -8.017278 N.am        1 UNL1     -0.2772
     10 C         6.612105   4.190384   -7.192286 C.2        1 UNL1     0.1049
     11 C         5.755914   3.408211   -6.560332 C.2        1 UNL1     0.0801
     12 C         6.444206   5.904617   -5.378299 C.ar        1 UNL1     0.0753
     13 C         5.690713   4.936574   -4.640907 C.ar        1 UNL1     0.0305
     14 C         5.21096   3.704655   -5.263211 C.2        1 UNL1     0.0924
     15 N         5.47676   2.106416   -6.744531 N.pl3        1 UNL1     -0.3170
     16 C         4.347439   1.777648   -5.915797 C.3        1 UNL1     0.1275
     17 N         4.425017   2.753342   -4.767003 N.2        1 UNL1     -0.2557
     18 C         3.090216   2.144209   -6.698563 C.3        1 UNL1     0.0016
     19 C         3.12059   1.419346   -8.034693 C.3        1 UNL1     0.0026
     20 N         3.184557   -0.014496   -7.787641 N.3        1 UNL1     -0.3018
     21 C         4.328686   -0.457173   -6.988032 C.3        1 UNL1     0.0026
     22 C         4.275765   0.279955   -5.648727 C.3        1 UNL1     0.0016
     23 C         2.917617   -0.803562   -8.973711 C.3        1 UNL1     0.0012
     24 C         1.99127   -1.98313   -8.638664 C.3        1 UNL1     -0.0339
     25 C         1.587027   -1.976981   -7.15522 C.3        1 UNL1     -0.0615
     26 C         0.775875   -1.965809   -9.549321 C.3        1 UNL1     -0.0615
     27 C         6.794009   7.129175   -4.814194 C.ar        1 UNL1     0.1347
     28 C         6.414534   7.513143   -3.540374 C.ar        1 UNL1     0.0342
     29 C         5.715287   6.524749   -2.815601 C.ar        1 UNL1     0.1435
     30 C         5.38914   5.27976   -3.354908 C.ar        1 UNL1     0.0774
     31 O         5.182153   6.785658   -1.602052 O.3        1 UNL1     -0.4436
     32 C         4.192144   5.763312   -1.41347 C.3        1 UNL1     0.3143
     33 C         4.621526   4.624681   -2.316445 C.2        1 UNL1     0.2504
     34 C         6.53459   8.896411   -2.963959 C.3        1 UNL1     -0.0327
     35 O         4.314789   5.295184   -0.064743 O.2        1 UNL1     -0.4528
     36 C         0.837408   4.178964   0.969646 C.3        1 UNL1     0.0854
     37 C         -0.106333   3.108557   0.298002 C.3        1 UNL1     0.0236
     38 C         -0.611966   1.943868   1.277583 C.3        1 UNL1     0.1131
     39 C         0.435371   1.144127   2.152666 C.3        1 UNL1     0.0200
     40 C         1.875367   0.629605   1.486247 C.3        1 UNL1     0.0661
     41 C         2.048121   -0.219158   0.027697 C.3        1 UNL1     0.0091
     42 C         3.401126   -0.193685   -1.210904 C.3        1 UNL1     0.0661
     43 C         6.76409   5.597894   -6.794582 C.2        1 UNL1     0.2131
     44 O         7.034643   6.448429   -7.622911 O.2        1 UNL1     -0.2851
     45 O         7.56723   7.996368   -5.583313 O.3        1 UNL1     -0.5056
     46 O         4.399022   3.440889   -2.194045 O.2        1 UNL1     -0.2836
     47 C         5.992868   -0.482099   -0.647429 C.3        1 UNL1     -0.0566
     48 O         3.487913   -1.67045   -1.314585 O.3        1 UNL1     -0.3909
     49 C         0.746637   -0.142017   -0.738907 C.3        1 UNL1     -0.0577
     50 O         2.85885   1.640732   1.576279 O.3        1 UNL1     -0.3910
     51 O         1.258463   3.890833   2.283847 O.3        1 UNL1     -0.3753
     52 C         0.294759   2.829653   -1.187356 C.3        1 UNL1     -0.0564
     53 O         -1.764174   1.154833   0.727887 O.3        1 UNL1     -0.4608
     54 C         -1.949536   -0.194178   0.881971 C.2        1 UNL1     0.3042
     55 O         -1.099727   -1.037108   1.166809 O.2        1 UNL1     -0.2512
     56 C         -3.380137   -0.62606   0.728439 C.3        1 UNL1     0.0332
     57 C         0.485966   1.834274   3.594647 C.3        1 UNL1     -0.0567
     58 C         2.858947   6.342822   -1.940996 C.3        1 UNL1     0.0210
     59 C         0.657817   4.697347   3.296085 C.3        1 UNL1     0.0372
     60 C         2.060423   4.515696   0.191182 C.2        1 UNL1     -0.0208
     61 C         3.326626   4.65275   0.587023 C.2        1 UNL1     0.0882
     62 H         5.009598   1.21146   -1.513082 H        1 UNL1     0.0365
     63 H         6.321768   1.773915   -2.973246 H        1 UNL1     0.0576
     64 H         7.160121   -0.634251   -4.703759 H        1 UNL1     0.0615
     65 H         7.776247   2.423457   -4.873073 H        1 UNL1     0.0622
     66 H         0.235707   5.098308   0.998099 H        1 UNL1     0.0645
     67 H         -1.044313   3.659069   0.109083 H        1 UNL1     0.0362
     68 H         -1.192194   2.545112   1.994078 H        1 UNL1     0.0741
     69 H         -0.018942   0.218229   2.479348 H        1 UNL1     0.0359
     70 H         2.178664   -0.119394   2.242602 H        1 UNL1     0.0600
     71 H         2.016439   -1.260147   0.404919 H        1 UNL1     0.0348
     72 H         3.831493   0.210892   -0.283317 H        1 UNL1     0.0602
     73 H         1.782601   4.778966   -0.799148 H        1 UNL1     0.0628
     74 H         3.703063   4.350999   1.56502 H        1 UNL1     0.1022
     75 H         8.283285   -0.090108   -8.079792 H        1 UNL1     0.0279
     76 H         8.794446   1.340858   -8.882508 H        1 UNL1     0.0279
     77 H         9.903083   0.401008   -7.804128 H        1 UNL1     0.0279
     78 H         7.033111   2.778908   -8.458342 H        1 UNL1     0.1553
     79 H         5.701851   1.601594   -7.58204 H        1 UNL1     0.1484
     80 H         2.208233   1.863218   -6.110417 H        1 UNL1     0.0317
     81 H         3.029541   3.226266   -6.85706 H        1 UNL1     0.0317
     82 H         3.963163   1.751413   -8.658965 H        1 UNL1     0.0428
     83 H         2.216169   1.696249   -8.577276 H        1 UNL1     0.0428
     84 H         4.310363   -1.525221   -6.749814 H        1 UNL1     0.0428
     85 H         5.278761   -0.319288   -7.522505 H        1 UNL1     0.0428
     86 H         5.044369   -0.16375   -5.043449 H        1 UNL1     0.0317
     87 H         3.352479   0.022439   -5.115506 H        1 UNL1     0.0317
     88 H         2.412801   -0.15972   -9.705778 H        1 UNL1     0.0429
     89 H         3.848828   -1.151206   -9.43929 H        1 UNL1     0.0429
     90 H         2.513749   -2.922665   -8.85431 H        1 UNL1     0.0308
     91 H         1.908912   -2.893349   -6.651473 H        1 UNL1     0.0233
     92 H         2.017945   -1.114727   -6.640986 H        1 UNL1     0.0233
     93 H         0.501333   -1.90337   -7.018524 H        1 UNL1     0.0233
     94 H         -0.013485   -2.604143   -9.137889 H        1 UNL1     0.0233
     95 H         0.38115   -0.94884   -9.626319 H        1 UNL1     0.0233
     96 H         1.023416   -2.325238   -10.552069 H        1 UNL1     0.0233
     97 H         5.572735   9.293178   -2.653086 H        1 UNL1     0.0280
     98 H         7.171822   8.918453   -2.070255 H        1 UNL1     0.0280
     99 H         6.960466   9.575752   -3.720412 H        1 UNL1     0.0280
     100 H         8.33957   7.607475   -5.954629 H        1 UNL1     0.2922
     101 H         6.891227   -0.936653   -1.064548 H        1 UNL1     0.0236
     102 H         5.424175   -1.184174   -0.038608 H        1 UNL1     0.0236
     103 H         6.36596   0.270977   0.066624 H        1 UNL1     0.0236
     104 H         2.751687   -2.046489   -0.793492 H        1 UNL1     0.2098
     105 H         0.685514   0.688581   -1.437607 H        1 UNL1     0.0234
     106 H         0.45069   -1.069861   -1.228242 H        1 UNL1     0.0234
     107 H         -0.0   0.0   0.0 H        1 UNL1     0.0234
     108 H         3.237203   1.598161   2.475615 H        1 UNL1     0.2098
     109 H         0.228717   3.731162   -1.812361 H        1 UNL1     0.0234
     110 H         1.291203   2.386149   -1.288085 H        1 UNL1     0.0234
     111 H         -0.372662   2.093882   -1.655476 H        1 UNL1     0.0234
     112 H         -3.826421   -0.133281   -0.140667 H        1 UNL1     0.0342
     113 H         -3.475637   -1.708388   0.655716 H        1 UNL1     0.0342
     114 H         -3.933904   -0.302223   1.620423 H        1 UNL1     0.0342
     115 H         1.505589   2.141988   3.864591 H        1 UNL1     0.0234
     116 H         -0.157707   2.710992   3.69004 H        1 UNL1     0.0234
     117 H         0.245802   1.143874   4.421454 H        1 UNL1     0.0234
     118 H         2.142287   6.542993   -1.125315 H        1 UNL1     0.0309
     119 H         2.990964   7.253809   -2.533345 H        1 UNL1     0.0309
     120 H         2.319626   5.638597   -2.583886 H        1 UNL1     0.0309
     121 H         -0.211722   5.185026   2.856279 H        1 UNL1     0.0524
     122 H         0.305112   4.099443   4.152909 H        1 UNL1     0.0524
     123 H         1.364583   5.44138   3.652441 H        1 UNL1     0.0524
@<TRIPOS>BOND
     1     1     2    1
     2     1    42    1
     3     2     3    2
     4     3     4    1
     5     4     5    2
     6     5     7    1
     7     6    75    1
     8     6    76    1
     9     6    77    1
    10     7     9   am
    11     9    10    1
    12    10    11    2
    13    10    43    1
    14    11    14    1
    15    11    15    1
    16    12    13   ar
    17    12    27   ar
    18    12    43    1
    19    13    14    1
    20    13    30   ar
    21    14    17    2
    22    15    16    1
    23    16    17    1
    24    16    18    1
    25    16    22    1
    26    18    19    1
    27    19    20    1
    28    20    21    1
    29    21    22    1
    30    23    24    1
    31    23    88    1
    32    23    89    1
    33    24    25    1
    34    24    26    1
    35    24    90    1
    36    25    91    1
    37    25    92    1
    38    25    93    1
    39    26    94    1
    40    26    95    1
    41    26    96    1
    42    27    28   ar
    43    28    29   ar
    44    29    30   ar
    45    29    31    1
    46    30    33    1
    47    31    32    1
    48    32    33    1
    49    32    35    1
    50    34    97    1
    51    34    98    1
    52    34    99    1
    53    35    61    1
    54    36    37    1
    55    36    60    1
    56    37    38    1
    57    38    39    1
    58    39    40    1
    59    40    41    1
    60    41    42    1
    61    45   100    1
    62    47   101    1
    63    47   102    1
    64    47   103    1
    65    48   104    1
    66    49   105    1
    67    49   106    1
    68    49   107    1
    69    50   108    1
    70    51    59    1
    71    52   109    1
    72    52   110    1
    73    52   111    1
    74    53    54    1
    75    54    55    2
    76    54    56    1
    77    56   112    1
    78    56   113    1
    79    56   114    1
    80    57   115    1
    81    57   116    1
    82    57   117    1
    83    58   118    1
    84    58   119    1
    85    58   120    1
    86    59   121    1
    87    59   122    1
    88    59   123    1
    89    60    61    2
    90     1    47    1
    91     1    62    1
    92     2    63    1
    93     3    64    1
    94     4    65    1
    95     5     6    1
    96     7     8    2
    97     9    78    1
    98    15    79    1
    99    18    80    1
   100    18    81    1
   101    19    82    1
   102    19    83    1
   103    20    23    1
   104    21    84    1
   105    21    85    1
   106    22    86    1
   107    22    87    1
   108    27    45    1
   109    28    34    1
   110    32    58    1
   111    33    46    2
   112    36    51    1
   113    36    66    1
   114    37    52    1
   115    37    67    1
   116    38    53    1
   117    38    68    1
   118    42    48    1
   119    42    72    1
   120    43    44    2
   121    60    73    1
   122    61    74    1
   123    39    69    1
   124    39    57    1
   125    40    70    1
   126    40    50    1
   127    41    71    1
   128    41    49    1
