@<TRIPOS>MOLECULE
*****
 123 128 0 0 0
SMALL
GASTEIGER

@<TRIPOS>ATOM
     1 C         1.377779   4.754966   -0.07603 C.3        1 UNL1     0.0009
     2 C         1.108491   6.188226   -1.220707 C.2        1 UNL1     -0.0787
     3 C         1.632303   7.1817   -2.134313 C.2        1 UNL1     -0.0649
     4 C         0.764704   8.286174   -3.079706 C.2        1 UNL1     -0.0542
     5 C         0.813636   9.133201   -4.214267 C.2        1 UNL1     0.0115
     6 C         1.758684   9.75157   -5.280957 C.3        1 UNL1     -0.0348
     7 C         -0.56319   9.650355   -4.857612 C.2        1 UNL1     0.2441
     8 O         -1.000885   10.777982   -4.674839 O.2        1 UNL1     -0.2702
     9 N         -1.099162   8.814133   -5.852407 N.am        1 UNL1     -0.2772
     10 C         -1.91149   7.857125   -5.288864 C.2        1 UNL1     0.1049
     11 C         -1.303944   6.787161   -4.808983 C.2        1 UNL1     0.0801
     12 C         -3.798131   7.557582   -3.673873 C.ar        1 UNL1     0.0753
     13 C         -3.004403   6.539029   -3.056496 C.ar        1 UNL1     0.0305
     14 C         -1.787051   6.031343   -3.685273 C.2        1 UNL1     0.0924
     15 N         -0.034643   6.372711   -4.962715 N.pl3        1 UNL1     -0.3170
     16 C         0.072771   5.060992   -4.381242 C.3        1 UNL1     0.1275
     17 N         -0.990883   5.033902   -3.310901 N.2        1 UNL1     -0.2557
     18 C         -0.369074   4.058237   -5.442824 C.3        1 UNL1     0.0016
     19 C         0.477854   4.263975   -6.688606 C.3        1 UNL1     0.0026
     20 N         1.878655   4.073433   -6.338635 N.3        1 UNL1     -0.3018
     21 C         2.38022   4.952533   -5.280342 C.3        1 UNL1     0.0026
     22 C         1.518108   4.72603   -4.037219 C.3        1 UNL1     0.0016
     23 C         2.738265   3.951144   -7.499134 C.3        1 UNL1     0.0012
     24 C         3.53428   5.247245   -7.718769 C.3        1 UNL1     -0.0339
     25 C         3.180739   6.309726   -6.665109 C.3        1 UNL1     -0.0615
     26 C         5.023223   4.947873   -7.733012 C.3        1 UNL1     -0.0615
     27 C         -5.018612   7.950551   -3.129704 C.ar        1 UNL1     0.1347
     28 C         -5.565668   7.372039   -1.998287 C.ar        1 UNL1     0.0342
     29 C         -4.743982   6.40577   -1.379967 C.ar        1 UNL1     0.1435
     30 C         -3.502776   6.027676   -1.893459 C.ar        1 UNL1     0.0774
     31 O         -5.182584   5.673798   -0.332661 O.3        1 UNL1     -0.4436
     32 C         -4.312005   4.53286   -0.29769 C.3        1 UNL1     0.3143
     33 C         -3.048596   4.976704   -1.006924 C.2        1 UNL1     0.2504
     34 C         -6.972287   7.562305   -1.502986 C.3        1 UNL1     -0.0327
     35 O         -3.962834   4.305337   1.073282 O.2        1 UNL1     -0.4528
     36 C         -3.385083   0.567453   1.393471 C.3        1 UNL1     0.0854
     37 C         -2.379503   -0.356467   0.604356 C.3        1 UNL1     0.0236
     38 C         -1.384154   -1.213049   1.524841 C.3        1 UNL1     0.1131
     39 C         -0.548906   -0.493418   2.659196 C.3        1 UNL1     0.0200
     40 C         0.19941   0.967018   2.35988 C.3        1 UNL1     0.0661
     41 C         1.197848   1.318676   1.034336 C.3        1 UNL1     0.0091
     42 C         1.456486   2.889666   0.123018 C.3        1 UNL1     0.0661
     43 C         -3.321137   8.118878   -4.96216 C.2        1 UNL1     0.2131
     44 O         -4.049364   8.672379   -5.765938 O.2        1 UNL1     -0.2851
     45 O         -5.707274   8.980658   -3.766933 O.3        1 UNL1     -0.5056
     46 O         -1.918091   4.569851   -0.857648 O.2        1 UNL1     -0.2836
     47 C         2.005683   5.240835   1.258005 C.3        1 UNL1     -0.0566
     48 O         2.935859   2.788164   0.139411 O.3        1 UNL1     -0.3909
     49 C         1.034947   0.229129   -0.001928 C.3        1 UNL1     -0.0577
     50 O         -0.687397   2.0421   2.595454 O.3        1 UNL1     -0.3910
     51 O         -3.173841   0.661219   2.78416 O.3        1 UNL1     -0.3753
     52 C         -1.913457   0.301713   -0.735253 C.3        1 UNL1     -0.0564
     53 O         -0.693707   -2.324683   0.790078 O.3        1 UNL1     -0.4608
     54 C         -0.856949   -3.662716   1.03696 C.2        1 UNL1     0.3042
     55 O         -1.564506   -4.182237   1.899108 O.2        1 UNL1     -0.2512
     56 C         -0.106872   -4.546468   0.081407 C.3        1 UNL1     0.0332
     57 C         -1.361681   -0.647666   4.028057 C.3        1 UNL1     -0.0567
     58 C         -4.997822   3.43332   -1.141608 C.3        1 UNL1     0.0210
     59 C         -3.965541   1.646925   3.445568 C.3        1 UNL1     0.0372
     60 C         -3.493656   1.960527   0.88091 C.2        1 UNL1     -0.0208
     61 C         -3.511404   3.123094   1.534261 C.2        1 UNL1     0.0882
     62 H         0.294413   4.706597   0.087338 H        1 UNL1     0.0365
     63 H         0.038649   6.359454   -1.08436 H        1 UNL1     0.0576
     64 H         2.685104   7.193332   -2.425144 H        1 UNL1     0.0615
     65 H         -0.243858   8.253751   -2.658713 H        1 UNL1     0.0622
     66 H         -4.369792   0.107995   1.228262 H        1 UNL1     0.0645
     67 H         -3.020415   -1.147944   0.178497 H        1 UNL1     0.0362
     68 H         -2.117449   -1.839473   2.055307 H        1 UNL1     0.0741
     69 H         0.278961   -1.131001   2.93943 H        1 UNL1     0.0359
     70 H         0.904566   0.998224   3.21243 H        1 UNL1     0.0600
     71 H         2.186441   1.063551   1.463934 H        1 UNL1     0.0348
     72 H         1.021343   3.170016   1.09326 H        1 UNL1     0.0602
     73 H         -3.693586   1.934546   -0.161491 H        1 UNL1     0.0628
     74 H         -3.260191   3.241706   2.588804 H        1 UNL1     0.1022
     75 H         2.795423   9.353353   -5.164211 H        1 UNL1     0.0279
     76 H         1.534613   9.520535   -6.319939 H        1 UNL1     0.0279
     77 H         1.92207   10.828848   -5.131036 H        1 UNL1     0.0279
     78 H         -0.345025   8.330139   -6.335217 H        1 UNL1     0.1553
     79 H         0.571354   6.694055   -5.695135 H        1 UNL1     0.1484
     80 H         -0.255629   3.042699   -5.044604 H        1 UNL1     0.0317
     81 H         -1.430377   4.184213   -5.682445 H        1 UNL1     0.0317
     82 H         0.312556   5.256041   -7.13402 H        1 UNL1     0.0428
     83 H         0.145   3.540195   -7.433187 H        1 UNL1     0.0428
     84 H         3.410409   4.735466   -4.981336 H        1 UNL1     0.0428
     85 H         2.411392   6.002752   -5.60188 H        1 UNL1     0.0428
     86 H         1.993118   5.281903   -3.250226 H        1 UNL1     0.0317
     87 H         1.608522   3.685229   -3.703071 H        1 UNL1     0.0317
     88 H         3.446657   3.132931   -7.314734 H        1 UNL1     0.0429
     89 H         2.163261   3.682989   -8.394812 H        1 UNL1     0.0429
     90 H         3.299981   5.648755   -8.711798 H        1 UNL1     0.0308
     91 H         4.079634   6.791613   -6.269036 H        1 UNL1     0.0233
     92 H         2.523137   7.071565   -7.090278 H        1 UNL1     0.0233
     93 H         2.64338   5.885557   -5.808276 H        1 UNL1     0.0233
     94 H         5.345161   4.586112   -6.750505 H        1 UNL1     0.0233
     95 H         5.240367   4.167217   -8.467442 H        1 UNL1     0.0233
     96 H         5.606987   5.838601   -7.981589 H        1 UNL1     0.0233
     97 H         -7.69785   7.517799   -2.309712 H        1 UNL1     0.0280
     98 H         -7.268592   6.782808   -0.788951 H        1 UNL1     0.0280
     99 H         -7.06096   8.5454   -1.012316 H        1 UNL1     0.0280
     100 H         -5.162068   9.574051   -4.252997 H        1 UNL1     0.2922
     101 H         2.624356   6.11909   1.074788 H        1 UNL1     0.0236
     102 H         2.551458   4.458767   1.784772 H        1 UNL1     0.0236
     103 H         1.240942   5.581986   1.975627 H        1 UNL1     0.0236
     104 H         3.181087   2.168489   0.854139 H        1 UNL1     0.2098
     105 H         1.308301   0.525143   -1.011614 H        1 UNL1     0.0234
     106 H         1.508367   -0.718332   0.255209 H        1 UNL1     0.0234
     107 H         0.0   -0.0   0.0 H        1 UNL1     0.0234
     108 H         -0.334931   2.818552   2.119368 H        1 UNL1     0.2098
     109 H         -0.878843   0.668207   -0.680785 H        1 UNL1     0.0234
     110 H         -2.02252   -0.360469   -1.600911 H        1 UNL1     0.0234
     111 H         -2.525723   1.176825   -0.990702 H        1 UNL1     0.0234
     112 H         -0.460814   -4.375345   -0.939763 H        1 UNL1     0.0342
     113 H         0.970402   -4.403204   0.150688 H        1 UNL1     0.0342
     114 H         -0.320975   -5.592325   0.341228 H        1 UNL1     0.0342
     115 H         -2.438746   -0.773945   3.851502 H        1 UNL1     0.0234
     116 H         -1.030693   -1.482298   4.649253 H        1 UNL1     0.0234
     117 H         -1.353125   0.264037   4.649883 H        1 UNL1     0.0234
     118 H         -4.697435   3.477579   -2.203123 H        1 UNL1     0.0309
     119 H         -4.816997   2.423416   -0.760034 H        1 UNL1     0.0309
     120 H         -6.086133   3.551884   -1.181944 H        1 UNL1     0.0309
     121 H         -3.359489   2.547556   3.540018 H        1 UNL1     0.0524
     122 H         -4.868307   1.913037   2.870906 H        1 UNL1     0.0524
     123 H         -4.264696   1.291739   4.427628 H        1 UNL1     0.0524
@<TRIPOS>BOND
     1     1     2    1
     2     1    42    1
     3     2     3    2
     4     3     4    1
     5     4     5    2
     6     5     7    1
     7     6    75    1
     8     6    76    1
     9     6    77    1
    10     7     9   am
    11     9    10    1
    12    10    11    2
    13    10    43    1
    14    11    14    1
    15    11    15    1
    16    12    13   ar
    17    12    27   ar
    18    12    43    1
    19    13    14    1
    20    13    30   ar
    21    14    17    2
    22    15    16    1
    23    16    17    1
    24    16    18    1
    25    16    22    1
    26    18    19    1
    27    19    20    1
    28    20    21    1
    29    21    22    1
    30    23    24    1
    31    23    88    1
    32    23    89    1
    33    24    25    1
    34    24    26    1
    35    24    90    1
    36    25    91    1
    37    25    92    1
    38    25    93    1
    39    26    94    1
    40    26    95    1
    41    26    96    1
    42    27    28   ar
    43    28    29   ar
    44    29    30   ar
    45    29    31    1
    46    30    33    1
    47    31    32    1
    48    32    33    1
    49    32    35    1
    50    34    97    1
    51    34    98    1
    52    34    99    1
    53    35    61    1
    54    36    37    1
    55    36    60    1
    56    37    38    1
    57    38    39    1
    58    39    40    1
    59    40    41    1
    60    41    42    1
    61    45   100    1
    62    47   101    1
    63    47   102    1
    64    47   103    1
    65    48   104    1
    66    49   105    1
    67    49   106    1
    68    49   107    1
    69    50   108    1
    70    51    59    1
    71    52   109    1
    72    52   110    1
    73    52   111    1
    74    53    54    1
    75    54    55    2
    76    54    56    1
    77    56   112    1
    78    56   113    1
    79    56   114    1
    80    57   115    1
    81    57   116    1
    82    57   117    1
    83    58   118    1
    84    58   119    1
    85    58   120    1
    86    59   121    1
    87    59   122    1
    88    59   123    1
    89    60    61    2
    90     1    47    1
    91     1    62    1
    92     2    63    1
    93     3    64    1
    94     4    65    1
    95     5     6    1
    96     7     8    2
    97     9    78    1
    98    15    79    1
    99    18    80    1
   100    18    81    1
   101    19    82    1
   102    19    83    1
   103    20    23    1
   104    21    84    1
   105    21    85    1
   106    22    86    1
   107    22    87    1
   108    27    45    1
   109    28    34    1
   110    32    58    1
   111    33    46    2
   112    36    51    1
   113    36    66    1
   114    37    52    1
   115    37    67    1
   116    38    53    1
   117    38    68    1
   118    42    48    1
   119    42    72    1
   120    43    44    2
   121    60    73    1
   122    61    74    1
   123    39    69    1
   124    39    57    1
   125    40    70    1
   126    40    50    1
   127    41    71    1
   128    41    49    1
