@<TRIPOS>MOLECULE
*****
 123 128 0 0 0
SMALL
GASTEIGER

@<TRIPOS>ATOM
     1 C         5.166368   1.760382   0.457127 C.3        1 UNL1     0.0009
     2 C         6.595822   2.569077   -0.402938 C.2        1 UNL1     -0.0787
     3 C         7.873628   2.473261   -1.07679 C.2        1 UNL1     -0.0649
     4 C         8.743522   3.709811   -1.838751 C.2        1 UNL1     -0.0542
     5 C         9.756881   4.004078   -2.784049 C.2        1 UNL1     0.0115
     6 C         10.880885   3.380541   -3.656483 C.3        1 UNL1     -0.0348
     7 C         9.845095   5.487148   -3.392086 C.2        1 UNL1     0.2441
     8 O         10.669579   6.310835   -3.020208 O.2        1 UNL1     -0.2702
     9 N         9.08695   5.691723   -4.558069 N.am        1 UNL1     -0.2772
     10 C         7.805426   6.075806   -4.236359 C.2        1 UNL1     0.1049
     11 C         6.963651   5.102737   -3.938408 C.2        1 UNL1     0.0801
     12 C         6.512573   7.680527   -2.818355 C.ar        1 UNL1     0.0753
     13 C         5.758861   6.551246   -2.365308 C.ar        1 UNL1     0.0305
     14 C         5.874517   5.245388   -3.010607 C.2        1 UNL1     0.0924
     15 N         7.088157   3.773928   -4.097441 N.pl3        1 UNL1     -0.3170
     16 C         5.821646   3.17219   -3.77477 C.3        1 UNL1     0.1275
     17 N         5.189439   4.126664   -2.791399 N.2        1 UNL1     -0.2557
     18 C         4.960606   3.228585   -5.032995 C.3        1 UNL1     0.0016
     19 C         5.709746   2.545415   -6.165981 C.3        1 UNL1     0.0026
     20 N         5.985364   1.168155   -5.780989 N.3        1 UNL1     -0.3018
     21 C         6.756981   1.010226   -4.546471 C.3        1 UNL1     0.0026
     22 C         5.983913   1.699767   -3.420952 C.3        1 UNL1     0.0016
     23 C         6.424554   0.348874   -6.892985 C.3        1 UNL1     0.0012
     24 C         5.263399   0.096245   -7.867487 C.3        1 UNL1     -0.0339
     25 C         5.348661   1.018259   -9.094954 C.3        1 UNL1     -0.0615
     26 C         5.23009   -1.368022   -8.269475 C.3        1 UNL1     -0.0615
     27 C         6.308598   8.948119   -2.278241 C.ar        1 UNL1     0.1347
     28 C         5.355113   9.216194   -1.312295 C.ar        1 UNL1     0.0342
     29 C         4.658993   8.080513   -0.846666 C.ar        1 UNL1     0.1435
     30 C         4.878001   6.798641   -1.352691 C.ar        1 UNL1     0.0774
     31 O         3.623238   8.192359   0.013397 O.3        1 UNL1     -0.4436
     32 C         2.903362   6.957875   -0.123361 C.3        1 UNL1     0.3143
     33 C         3.915402   5.966639   -0.661356 C.2        1 UNL1     0.2504
     34 C         4.908118   10.581604   -0.869634 C.3        1 UNL1     -0.0327
     35 O         2.552114   6.521243   1.195438 O.2        1 UNL1     -0.4528
     36 C         -0.689174   4.581727   0.820705 C.3        1 UNL1     0.0854
     37 C         -0.997461   3.319897   -0.07387 C.3        1 UNL1     0.0236
     38 C         -1.590201   2.058058   0.7187 C.3        1 UNL1     0.1131
     39 C         -0.854966   1.529557   2.015768 C.3        1 UNL1     0.0200
     40 C         0.80677   1.387664   2.046388 C.3        1 UNL1     0.0661
     41 C         1.760313   0.620167   0.871946 C.3        1 UNL1     0.0091
     42 C         3.463457   0.98608   0.296784 C.3        1 UNL1     0.0661
     43 C         7.455869   7.474167   -3.945239 C.2        1 UNL1     0.2131
     44 O         7.849178   8.372645   -4.666892 O.2        1 UNL1     -0.2851
     45 O         7.115647   9.984697   -2.742588 O.3        1 UNL1     -0.5056
     46 O         3.934859   4.763228   -0.529912 O.2        1 UNL1     -0.2836
     47 C         5.572873   1.332713   1.893037 C.3        1 UNL1     -0.0566
     48 O         3.915618   -0.423989   0.3766 O.3        1 UNL1     -0.3909
     49 C         0.91871   0.384943   -0.362505 C.3        1 UNL1     -0.0577
     50 O         1.40681   2.60709   2.434556 O.3        1 UNL1     -0.3910
     51 O         -0.803931   4.392697   2.213016 O.3        1 UNL1     -0.3753
     52 C         0.039937   3.160946   -1.23296 C.3        1 UNL1     -0.0564
     53 O         -2.196286   1.017171   -0.176589 O.3        1 UNL1     -0.4608
     54 C         -2.39762   -0.297167   0.154936 C.2        1 UNL1     0.3042
     55 O         -1.816278   -1.280322   -0.302544 O.2        1 UNL1     -0.2512
     56 C         -3.414251   -0.493956   1.24326 C.3        1 UNL1     0.0332
     57 C         -1.569357   2.197808   3.281177 C.3        1 UNL1     -0.0567
     58 C         1.820709   7.199906   -1.200771 C.3        1 UNL1     0.0210
     59 C         -1.114953   5.571505   2.954327 C.3        1 UNL1     0.0372
     60 C         0.63694   5.213554   0.581168 C.2        1 UNL1     -0.0208
     61 C         1.554476   5.65135   1.444422 C.2        1 UNL1     0.0882
     62 H         4.68887   2.743572   0.546807 H        1 UNL1     0.0365
     63 H         6.327954   3.622363   -0.296611 H        1 UNL1     0.0576
     64 H         8.331965   1.507264   -1.30014 H        1 UNL1     0.0615
     65 H         8.256675   4.624373   -1.489411 H        1 UNL1     0.0622
     66 H         -1.437425   5.326425   0.514779 H        1 UNL1     0.0645
     67 H         -1.867584   3.62697   -0.679801 H        1 UNL1     0.0362
     68 H         -2.535948   2.493103   1.07622 H        1 UNL1     0.0741
     69 H         -1.183021   0.517869   2.213948 H        1 UNL1     0.0359
     70 H         0.925635   0.728163   2.927291 H        1 UNL1     0.0600
     71 H         1.808861   -0.400618   1.299263 H        1 UNL1     0.0348
     72 H         3.362794   1.474705   1.276798 H        1 UNL1     0.0602
     73 H         0.747755   5.410371   -0.456248 H        1 UNL1     0.0628
     74 H         1.544251   5.441361   2.514486 H        1 UNL1     0.1022
     75 H         10.910015   2.272017   -3.524719 H        1 UNL1     0.0279
     76 H         10.773549   3.48566   -4.733747 H        1 UNL1     0.0279
     77 H         11.888316   3.665473   -3.319441 H        1 UNL1     0.0279
     78 H         9.023483   4.821292   -5.0819 H        1 UNL1     0.1553
     79 H         7.750386   3.346975   -4.718808 H        1 UNL1     0.1484
     80 H         4.001663   2.735689   -4.832376 H        1 UNL1     0.0317
     81 H         4.730002   4.264661   -5.303216 H        1 UNL1     0.0317
     82 H         6.637638   3.078577   -6.42028 H        1 UNL1     0.0428
     83 H         5.078768   2.598602   -7.053724 H        1 UNL1     0.0428
     84 H         6.881557   -0.032255   -4.237399 H        1 UNL1     0.0428
     85 H         7.785581   1.380431   -4.657137 H        1 UNL1     0.0428
     86 H         6.506696   1.451136   -2.516038 H        1 UNL1     0.0317
     87 H         5.006335   1.220082   -3.289268 H        1 UNL1     0.0317
     88 H         7.216034   0.89205   -7.425726 H        1 UNL1     0.0429
     89 H         6.861454   -0.595719   -6.544222 H        1 UNL1     0.0429
     90 H         4.314365   0.287161   -7.35261 H        1 UNL1     0.0308
     91 H         6.300918   0.89513   -9.6195 H        1 UNL1     0.0233
     92 H         4.528683   0.815713   -9.787932 H        1 UNL1     0.0233
     93 H         5.267796   2.078715   -8.827132 H        1 UNL1     0.0233
     94 H         4.569931   -1.5079   -9.132297 H        1 UNL1     0.0233
     95 H         6.232307   -1.700133   -8.554473 H        1 UNL1     0.0233
     96 H         4.868571   -1.998126   -7.452015 H        1 UNL1     0.0233
     97 H         4.113315   10.53071   -0.131441 H        1 UNL1     0.0280
     98 H         5.720252   11.150248   -0.398107 H        1 UNL1     0.0280
     99 H         4.536426   11.148134   -1.739108 H        1 UNL1     0.0280
     100 H         6.645876   10.746857   -3.0325 H        1 UNL1     0.2922
     101 H         4.711127   0.908947   2.408277 H        1 UNL1     0.0236
     102 H         6.036675   2.136069   2.46443 H        1 UNL1     0.0236
     103 H         6.321691   0.523124   1.887653 H        1 UNL1     0.0236
     104 H         4.33566   -0.55006   1.249893 H        1 UNL1     0.2098
     105 H         0.700426   1.282923   -0.93504 H        1 UNL1     0.0234
     106 H         1.285601   -0.402713   -1.020467 H        1 UNL1     0.0234
     107 H         0.0   -0.0   0.0 H        1 UNL1     0.0234
     108 H         1.217357   3.259803   1.733242 H        1 UNL1     0.2098
     109 H         1.068855   3.062355   -0.859705 H        1 UNL1     0.0234
     110 H         -0.188327   2.325289   -1.903272 H        1 UNL1     0.0234
     111 H         0.046188   4.03811   -1.893634 H        1 UNL1     0.0234
     112 H         -3.511505   -1.559266   1.473481 H        1 UNL1     0.0342
     113 H         -3.172872   0.078587   2.137561 H        1 UNL1     0.0342
     114 H         -4.386063   -0.139296   0.873178 H        1 UNL1     0.0342
     115 H         -2.640767   1.957387   3.319478 H        1 UNL1     0.0234
     116 H         -1.133794   1.91013   4.240121 H        1 UNL1     0.0234
     117 H         -1.599739   3.300146   3.237925 H        1 UNL1     0.0234
     118 H         0.919388   7.68089   -0.782106 H        1 UNL1     0.0309
     119 H         2.182073   7.792014   -2.047546 H        1 UNL1     0.0309
     120 H         1.434754   6.266936   -1.625872 H        1 UNL1     0.0309
     121 H         -0.279122   6.261567   2.842267 H        1 UNL1     0.0524
     122 H         -2.017417   6.07871   2.574405 H        1 UNL1     0.0524
     123 H         -1.262218   5.32825   4.002771 H        1 UNL1     0.0524
@<TRIPOS>BOND
     1     1     2    1
     2     1    42    1
     3     2     3    2
     4     3     4    1
     5     4     5    2
     6     5     7    1
     7     6    75    1
     8     6    76    1
     9     6    77    1
    10     7     9   am
    11     9    10    1
    12    10    11    2
    13    10    43    1
    14    11    14    1
    15    11    15    1
    16    12    13   ar
    17    12    27   ar
    18    12    43    1
    19    13    14    1
    20    13    30   ar
    21    14    17    2
    22    15    16    1
    23    16    17    1
    24    16    18    1
    25    16    22    1
    26    18    19    1
    27    19    20    1
    28    20    21    1
    29    21    22    1
    30    23    24    1
    31    23    88    1
    32    23    89    1
    33    24    25    1
    34    24    26    1
    35    24    90    1
    36    25    91    1
    37    25    92    1
    38    25    93    1
    39    26    94    1
    40    26    95    1
    41    26    96    1
    42    27    28   ar
    43    28    29   ar
    44    29    30   ar
    45    29    31    1
    46    30    33    1
    47    31    32    1
    48    32    33    1
    49    32    35    1
    50    34    97    1
    51    34    98    1
    52    34    99    1
    53    35    61    1
    54    36    37    1
    55    36    60    1
    56    37    38    1
    57    38    39    1
    58    39    40    1
    59    40    41    1
    60    41    42    1
    61    45   100    1
    62    47   101    1
    63    47   102    1
    64    47   103    1
    65    48   104    1
    66    49   105    1
    67    49   106    1
    68    49   107    1
    69    50   108    1
    70    51    59    1
    71    52   109    1
    72    52   110    1
    73    52   111    1
    74    53    54    1
    75    54    55    2
    76    54    56    1
    77    56   112    1
    78    56   113    1
    79    56   114    1
    80    57   115    1
    81    57   116    1
    82    57   117    1
    83    58   118    1
    84    58   119    1
    85    58   120    1
    86    59   121    1
    87    59   122    1
    88    59   123    1
    89    60    61    2
    90     1    47    1
    91     1    62    1
    92     2    63    1
    93     3    64    1
    94     4    65    1
    95     5     6    1
    96     7     8    2
    97     9    78    1
    98    15    79    1
    99    18    80    1
   100    18    81    1
   101    19    82    1
   102    19    83    1
   103    20    23    1
   104    21    84    1
   105    21    85    1
   106    22    86    1
   107    22    87    1
   108    27    45    1
   109    28    34    1
   110    32    58    1
   111    33    46    2
   112    36    51    1
   113    36    66    1
   114    37    52    1
   115    37    67    1
   116    38    53    1
   117    38    68    1
   118    42    48    1
   119    42    72    1
   120    43    44    2
   121    60    73    1
   122    61    74    1
   123    39    69    1
   124    39    57    1
   125    40    70    1
   126    40    50    1
   127    41    71    1
   128    41    49    1
