@<TRIPOS>MOLECULE
*****
 123 128 0 0 0
SMALL
GASTEIGER

@<TRIPOS>ATOM
     1 C         5.167914   1.746355   0.492114 C.3        1 UNL1     0.0009
     2 C         6.605013   2.552069   -0.357951 C.2        1 UNL1     -0.0787
     3 C         7.886889   2.453504   -1.023627 C.2        1 UNL1     -0.0649
     4 C         8.764932   3.688455   -1.778805 C.2        1 UNL1     -0.0542
     5 C         9.785146   3.980916   -2.717266 C.2        1 UNL1     0.0115
     6 C         10.913119   3.355218   -3.583003 C.3        1 UNL1     -0.0348
     7 C         9.881181   5.464303   -3.323341 C.2        1 UNL1     0.2441
     8 O         10.705406   6.285476   -2.945382 O.2        1 UNL1     -0.2702
     9 N         9.131123   5.671938   -4.494005 N.am        1 UNL1     -0.2772
     10 C         7.848561   6.059099   -4.180218 C.2        1 UNL1     0.1049
     11 C         7.002326   5.087979   -3.888614 C.2        1 UNL1     0.0801
     12 C         6.550796   7.665924   -2.769101 C.ar        1 UNL1     0.0753
     13 C         5.791209   6.538218   -2.321981 C.ar        1 UNL1     0.0305
     14 C         5.9076   5.23265   -2.967733 C.2        1 UNL1     0.0924
     15 N         7.124365   3.758992   -4.048076 N.pl3        1 UNL1     -0.3170
     16 C         5.85422   3.160297   -3.734149 C.3        1 UNL1     0.1275
     17 N         5.218184   4.115534   -2.753994 N.2        1 UNL1     -0.2557
     18 C         5.001476   3.220107   -4.997855 C.3        1 UNL1     0.0016
     19 C         5.756123   2.536002   -6.126614 C.3        1 UNL1     0.0026
     20 N         6.025628   1.15767   -5.741132 N.3        1 UNL1     -0.3018
     21 C         6.788838   0.996583   -4.501805 C.3        1 UNL1     0.0026
     22 C         6.01033   1.687129   -3.38066 C.3        1 UNL1     0.0016
     23 C         6.469839   0.338252   -6.85103 C.3        1 UNL1     0.0012
     24 C         5.314344   0.08957   -7.833244 C.3        1 UNL1     -0.0339
     25 C         5.340416   1.093068   -8.997876 C.3        1 UNL1     -0.0615
     26 C         5.353131   -1.345013   -8.330486 C.3        1 UNL1     -0.0615
     27 C         6.346666   8.933555   -2.229137 C.ar        1 UNL1     0.1347
     28 C         5.387669   9.203257   -1.269118 C.ar        1 UNL1     0.0342
     29 C         4.685575   8.068988   -0.80905 C.ar        1 UNL1     0.1435
     30 C         4.904479   6.787007   -1.314842 C.ar        1 UNL1     0.0774
     31 O         3.644584   8.182776   0.044411 O.3        1 UNL1     -0.4436
     32 C         2.922366   6.950317   -0.09814 C.3        1 UNL1     0.3143
     33 C         3.935253   5.956911   -0.630511 C.2        1 UNL1     0.2504
     34 C         4.941412   10.569435   -0.828083 C.3        1 UNL1     -0.0327
     35 O         2.56146   6.513407   1.217956 O.2        1 UNL1     -0.4528
     36 C         -0.682422   4.582775   0.820498 C.3        1 UNL1     0.0854
     37 C         -0.988239   3.322577   -0.077222 C.3        1 UNL1     0.0236
     38 C         -1.589399   2.061581   0.710331 C.3        1 UNL1     0.1131
     39 C         -0.863948   1.529962   2.011627 C.3        1 UNL1     0.0200
     40 C         0.797177   1.383666   2.052844 C.3        1 UNL1     0.0661
     41 C         1.756267   0.614733   0.88387 C.3        1 UNL1     0.0091
     42 C         3.464046   0.976687   0.320058 C.3        1 UNL1     0.0661
     43 C         7.500805   7.458109   -3.890062 C.2        1 UNL1     0.2131
     44 O         7.901126   8.356208   -4.608324 O.2        1 UNL1     -0.2851
     45 O         7.159418   9.968427   -2.687298 O.3        1 UNL1     -0.5056
     46 O         3.950699   4.753334   -0.500064 O.2        1 UNL1     -0.2836
     47 C         5.56401   1.316307   1.93022 C.3        1 UNL1     -0.0566
     48 O         3.911976   -0.434641   0.401481 O.3        1 UNL1     -0.3909
     49 C         0.922041   0.382854   -0.356207 C.3        1 UNL1     -0.0577
     50 O         1.397898   2.601153   2.446013 O.3        1 UNL1     -0.3910
     51 O         -0.806667   4.392777   2.211863 O.3        1 UNL1     -0.3753
     52 C         0.056203   3.161954   -1.229736 C.3        1 UNL1     -0.0564
     53 O         -2.192419   1.023111   -0.18982 O.3        1 UNL1     -0.4608
     54 C         -2.414938   -0.286974   0.144983 C.2        1 UNL1     0.3042
     55 O         -1.842951   -1.279882   -0.303127 O.2        1 UNL1     -0.2512
     56 C         -3.44431   -0.465333   1.224471 C.3        1 UNL1     0.0332
     57 C         -1.58474   2.198936   3.273018 C.3        1 UNL1     -0.0567
     58 C         1.847335   7.196181   -1.182293 C.3        1 UNL1     0.0210
     59 C         -1.150298   5.56537   2.948618 C.3        1 UNL1     0.0372
     60 C         0.646866   5.211326   0.590117 C.2        1 UNL1     -0.0208
     61 C         1.559953   5.645917   1.459684 C.2        1 UNL1     0.0882
     62 H         4.69243   2.730717   0.579623 H        1 UNL1     0.0365
     63 H         6.339232   3.60596   -0.252376 H        1 UNL1     0.0576
     64 H         8.34412   1.486509   -1.244912 H        1 UNL1     0.0615
     65 H         8.278243   4.603976   -1.431765 H        1 UNL1     0.0622
     66 H         -1.426724   5.329719   0.51044 H        1 UNL1     0.0645
     67 H         -1.85362   3.632494   -0.688473 H        1 UNL1     0.0362
     68 H         -2.536289   2.498788   1.062141 H        1 UNL1     0.0741
     69 H         -1.195933   0.51896   2.206744 H        1 UNL1     0.0359
     70 H         0.908616   0.723051   2.933883 H        1 UNL1     0.0600
     71 H         1.799372   -0.406565   1.310543 H        1 UNL1     0.0348
     72 H         3.358339   1.46468   1.299856 H        1 UNL1     0.0602
     73 H         0.764897   5.408797   -0.446378 H        1 UNL1     0.0628
     74 H         1.542265   5.434978   2.529464 H        1 UNL1     0.1022
     75 H         10.957097   2.249879   -3.430276 H        1 UNL1     0.0279
     76 H         10.799572   3.438343   -4.661551 H        1 UNL1     0.0279
     77 H         11.918317   3.659385   -3.256258 H        1 UNL1     0.0279
     78 H         9.068755   4.802156   -5.019044 H        1 UNL1     0.1553
     79 H         7.78947   3.330865   -4.665551 H        1 UNL1     0.1484
     80 H         4.039966   2.729554   -4.803891 H        1 UNL1     0.0317
     81 H         4.775345   4.257033   -5.268595 H        1 UNL1     0.0317
     82 H         6.687035   3.066951   -6.374421 H        1 UNL1     0.0428
     83 H         5.131034   2.59166   -7.018363 H        1 UNL1     0.0428
     84 H         6.908676   -0.046504   -4.192904 H        1 UNL1     0.0428
     85 H         7.8191   1.36418   -4.605483 H        1 UNL1     0.0428
     86 H         6.526602   1.436296   -2.472621 H        1 UNL1     0.0317
     87 H         5.030665   1.2099   -3.255737 H        1 UNL1     0.0317
     88 H         7.266168   0.879828   -7.378145 H        1 UNL1     0.0429
     89 H         6.901994   -0.607807   -6.500332 H        1 UNL1     0.0429
     90 H         4.361507   0.196567   -7.301391 H        1 UNL1     0.0308
     91 H         6.290525   1.050055   -9.53875 H        1 UNL1     0.0233
     92 H         4.521925   0.897577   -9.694628 H        1 UNL1     0.0233
     93 H         5.21343   2.128635   -8.659776 H        1 UNL1     0.0233
     94 H         4.656829   -1.474061   -9.166156 H        1 UNL1     0.0233
     95 H         6.357408   -1.589646   -8.687618 H        1 UNL1     0.0233
     96 H         5.07841   -2.048933   -7.53992 H        1 UNL1     0.0233
     97 H         4.14802   10.51982   -0.088287 H        1 UNL1     0.0280
     98 H         5.754399   11.138992   -0.359134 H        1 UNL1     0.0280
     99 H         4.568023   11.13436   -1.697873 H        1 UNL1     0.0280
     100 H         6.692732   10.719069   -3.010354 H        1 UNL1     0.2922
     101 H         4.700982   0.882924   2.435212 H        1 UNL1     0.0236
     102 H         6.015127   2.121302   2.50941 H        1 UNL1     0.0236
     103 H         6.3199   0.513299   1.928945 H        1 UNL1     0.0236
     104 H         4.331417   -0.561041   1.275015 H        1 UNL1     0.2098
     105 H         0.709819   1.281927   -0.929305 H        1 UNL1     0.0234
     106 H         1.291104   -0.405165   -1.012519 H        1 UNL1     0.0234
     107 H         0.0   -0.0   0.0 H        1 UNL1     0.0234
     108 H         1.199672   3.259671   1.752594 H        1 UNL1     0.2098
     109 H         1.080972   3.047924   -0.849528 H        1 UNL1     0.0234
     110 H         -0.176581   2.335131   -1.909383 H        1 UNL1     0.0234
     111 H         0.077816   4.044924   -1.882302 H        1 UNL1     0.0234
     112 H         -3.569832   -1.529348   1.446874 H        1 UNL1     0.0342
     113 H         -3.195453   0.0952   2.124313 H        1 UNL1     0.0342
     114 H         -4.404166   -0.08411   0.849624 H        1 UNL1     0.0342
     115 H         -2.649023   1.93097   3.324822 H        1 UNL1     0.0234
     116 H         -1.133353   1.937947   4.23228 H        1 UNL1     0.0234
     117 H         -1.644715   3.299273   3.212992 H        1 UNL1     0.0234
     118 H         0.946461   7.683384   -0.769901 H        1 UNL1     0.0309
     119 H         2.217   7.784214   -2.028323 H        1 UNL1     0.0309
     120 H         1.458366   6.264503   -1.607482 H        1 UNL1     0.0309
     121 H         -0.345739   6.287603   2.81289 H        1 UNL1     0.0524
     122 H         -2.080236   6.031726   2.582879 H        1 UNL1     0.0524
     123 H         -1.266131   5.32686   4.002083 H        1 UNL1     0.0524
@<TRIPOS>BOND
     1     1     2    1
     2     1    42    1
     3     2     3    2
     4     3     4    1
     5     4     5    2
     6     5     7    1
     7     6    75    1
     8     6    76    1
     9     6    77    1
    10     7     9   am
    11     9    10    1
    12    10    11    2
    13    10    43    1
    14    11    14    1
    15    11    15    1
    16    12    13   ar
    17    12    27   ar
    18    12    43    1
    19    13    14    1
    20    13    30   ar
    21    14    17    2
    22    15    16    1
    23    16    17    1
    24    16    18    1
    25    16    22    1
    26    18    19    1
    27    19    20    1
    28    20    21    1
    29    21    22    1
    30    23    24    1
    31    23    88    1
    32    23    89    1
    33    24    25    1
    34    24    26    1
    35    24    90    1
    36    25    91    1
    37    25    92    1
    38    25    93    1
    39    26    94    1
    40    26    95    1
    41    26    96    1
    42    27    28   ar
    43    28    29   ar
    44    29    30   ar
    45    29    31    1
    46    30    33    1
    47    31    32    1
    48    32    33    1
    49    32    35    1
    50    34    97    1
    51    34    98    1
    52    34    99    1
    53    35    61    1
    54    36    37    1
    55    36    60    1
    56    37    38    1
    57    38    39    1
    58    39    40    1
    59    40    41    1
    60    41    42    1
    61    45   100    1
    62    47   101    1
    63    47   102    1
    64    47   103    1
    65    48   104    1
    66    49   105    1
    67    49   106    1
    68    49   107    1
    69    50   108    1
    70    51    59    1
    71    52   109    1
    72    52   110    1
    73    52   111    1
    74    53    54    1
    75    54    55    2
    76    54    56    1
    77    56   112    1
    78    56   113    1
    79    56   114    1
    80    57   115    1
    81    57   116    1
    82    57   117    1
    83    58   118    1
    84    58   119    1
    85    58   120    1
    86    59   121    1
    87    59   122    1
    88    59   123    1
    89    60    61    2
    90     1    47    1
    91     1    62    1
    92     2    63    1
    93     3    64    1
    94     4    65    1
    95     5     6    1
    96     7     8    2
    97     9    78    1
    98    15    79    1
    99    18    80    1
   100    18    81    1
   101    19    82    1
   102    19    83    1
   103    20    23    1
   104    21    84    1
   105    21    85    1
   106    22    86    1
   107    22    87    1
   108    27    45    1
   109    28    34    1
   110    32    58    1
   111    33    46    2
   112    36    51    1
   113    36    66    1
   114    37    52    1
   115    37    67    1
   116    38    53    1
   117    38    68    1
   118    42    48    1
   119    42    72    1
   120    43    44    2
   121    60    73    1
   122    61    74    1
   123    39    69    1
   124    39    57    1
   125    40    70    1
   126    40    50    1
   127    41    71    1
   128    41    49    1
