@<TRIPOS>MOLECULE
*****
 123 128 0 0 0
SMALL
GASTEIGER

@<TRIPOS>ATOM
     1 C         4.969039   2.24769   0.517968 C.3        1 UNL1     0.0009
     2 C         6.352656   3.127457   -0.347279 C.2        1 UNL1     -0.0787
     3 C         7.663546   3.108609   -0.961493 C.2        1 UNL1     -0.0649
     4 C         8.445248   4.364806   -1.784456 C.2        1 UNL1     -0.0542
     5 C         9.468365   4.686515   -2.710098 C.2        1 UNL1     0.0115
     6 C         10.686072   4.113936   -3.486413 C.3        1 UNL1     -0.0348
     7 C         9.442085   6.121376   -3.429454 C.2        1 UNL1     0.2441
     8 O         10.165771   7.048208   -3.092132 O.2        1 UNL1     -0.2702
     9 N         8.722549   6.16203   -4.63642 N.am        1 UNL1     -0.2772
     10 C         7.396622   6.440207   -4.395887 C.2        1 UNL1     0.1049
     11 C         6.639086   5.413534   -4.054851 C.2        1 UNL1     0.0801
     12 C         5.891785   8.010452   -3.160116 C.ar        1 UNL1     0.0753
     13 C         5.22961   6.849102   -2.648842 C.ar        1 UNL1     0.0305
     14 C         5.499569   5.516545   -3.184066 C.2        1 UNL1     0.0924
     15 N         6.897563   4.095449   -4.103537 N.pl3        1 UNL1     -0.3170
     16 C         5.680979   3.396993   -3.783635 C.3        1 UNL1     0.1275
     17 N         4.915439   4.354982   -2.903903 N.2        1 UNL1     -0.2557
     18 C         4.877595   3.273518   -5.07477 C.3        1 UNL1     0.0016
     19 C         5.740326   2.585132   -6.120431 C.3        1 UNL1     0.0026
     20 N         6.128546   1.274635   -5.617526 N.3        1 UNL1     -0.3018
     21 C         6.85384   1.286727   -4.345452 C.3        1 UNL1     0.0026
     22 C         5.967052   1.978506   -3.308657 C.3        1 UNL1     0.0016
     23 C         6.695159   0.422046   -6.643531 C.3        1 UNL1     0.0012
     24 C         7.796513   1.166397   -7.41471 C.3        1 UNL1     -0.0339
     25 C         7.832738   0.742957   -8.892357 C.3        1 UNL1     -0.0615
     26 C         7.61222   2.666781   -7.267524 C.3        1 UNL1     -0.0615
     27 C         5.542536   9.28842   -2.730067 C.ar        1 UNL1     0.1347
     28 C         4.524117   9.532178   -1.825936 C.ar        1 UNL1     0.0342
     29 C         3.919239   8.371127   -1.299394 C.ar        1 UNL1     0.1435
     30 C         4.283226   7.083029   -1.693777 C.ar        1 UNL1     0.0774
     31 O         2.838881   8.443794   -0.491587 O.3        1 UNL1     -0.4436
     32 C         2.2477   7.137296   -0.558218 C.3        1 UNL1     0.3143
     33 C         3.373849   6.213781   -0.976695 C.2        1 UNL1     0.2504
     34 C         3.928361   10.875837   -1.510093 C.3        1 UNL1     -0.0327
     35 O         1.879309   6.767871   0.776348 O.2        1 UNL1     -0.4528
     36 C         -1.140416   4.494131   0.430723 C.3        1 UNL1     0.0854
     37 C         -1.284688   3.144605   -0.372698 C.3        1 UNL1     0.0236
     38 C         -1.7898   1.893069   0.49348 C.3        1 UNL1     0.1131
     39 C         -1.068066   1.538529   1.85571 C.3        1 UNL1     0.0200
     40 C         0.596419   1.564698   1.96174 C.3        1 UNL1     0.0661
     41 C         1.67239   0.809792   0.889353 C.3        1 UNL1     0.0091
     42 C         3.357398   1.298633   0.353458 C.3        1 UNL1     0.0661
     43 C         6.9016   7.814882   -4.229828 C.2        1 UNL1     0.2131
     44 O         7.239951   8.69141   -5.004396 O.2        1 UNL1     -0.2851
     45 O         6.267151   10.362223   -3.243213 O.3        1 UNL1     -0.5056
     46 O         3.502427   5.03144   -0.749997 O.2        1 UNL1     -0.2836
     47 C         5.347827   1.971011   1.997816 C.3        1 UNL1     -0.0566
     48 O         3.938413   -0.049749   0.561794 O.3        1 UNL1     -0.3909
     49 C         0.915176   0.400659   -0.354324 C.3        1 UNL1     -0.0577
     50 O         1.058263   2.863184   2.275358 O.3        1 UNL1     -0.3910
     51 O         -1.300781   4.399328   1.828123 O.3        1 UNL1     -0.3753
     52 C         -0.184358   3.002994   -1.474592 C.3        1 UNL1     -0.0564
     53 O         -2.251316   0.733212   -0.339623 O.3        1 UNL1     -0.4608
     54 C         -2.367031   -0.561413   0.094525 C.2        1 UNL1     0.3042
     55 O         -1.597068   -1.495142   -0.127162 O.2        1 UNL1     -0.2512
     56 C         -3.5568   -0.794158   0.981651 C.3        1 UNL1     0.0332
     57 C         -1.900939   2.22546   3.035805 C.3        1 UNL1     -0.0567
     58 C         1.197814   7.189582   -1.692473 C.3        1 UNL1     0.0210
     59 C         -1.757029   5.593712   2.461488 C.3        1 UNL1     0.0372
     60 C         0.128706   5.234568   0.193565 C.2        1 UNL1     -0.0208
     61 C         0.959173   5.824468   1.054428 C.2        1 UNL1     0.0882
     62 H         4.395897   3.182662   0.511193 H        1 UNL1     0.0365
     63 H         5.980469   4.154001   -0.334891 H        1 UNL1     0.0576
     64 H         8.222169   2.178802   -1.08997 H        1 UNL1     0.0615
     65 H         7.857381   5.250176   -1.52752 H        1 UNL1     0.0622
     66 H         -1.941632   5.136036   0.038223 H        1 UNL1     0.0645
     67 H         -2.15128   3.317756   -1.034208 H        1 UNL1     0.0362
     68 H         -2.788394   2.257767   0.778658 H        1 UNL1     0.0741
     69 H         -1.306484   0.516982   2.120298 H        1 UNL1     0.0359
     70 H         0.737073   0.987965   2.895901 H        1 UNL1     0.0600
     71 H         1.798716   -0.166323   1.397486 H        1 UNL1     0.0348
     72 H         3.165178   1.8468   1.287202 H        1 UNL1     0.0602
     73 H         0.267997   5.363251   -0.851082 H        1 UNL1     0.0628
     74 H         0.919654   5.695124   2.13653 H        1 UNL1     0.1022
     75 H         11.481553   3.78047   -2.777157 H        1 UNL1     0.0279
     76 H         10.507493   3.21773   -4.076323 H        1 UNL1     0.0279
     77 H         11.220031   4.881304   -4.065839 H        1 UNL1     0.0279
     78 H         8.767064   5.252865   -5.091958 H        1 UNL1     0.1553
     79 H         7.625671   3.690951   -4.663155 H        1 UNL1     0.1484
     80 H         3.962047   2.704411   -4.873134 H        1 UNL1     0.0317
     81 H         4.561518   4.258515   -5.43467 H        1 UNL1     0.0317
     82 H         6.623623   3.1871   -6.37992 H        1 UNL1     0.0428
     83 H         5.148877   2.508981   -7.03336 H        1 UNL1     0.0428
     84 H         7.063308   0.287774   -3.95045 H        1 UNL1     0.0428
     85 H         7.846246   1.747723   -4.445101 H        1 UNL1     0.0428
     86 H         6.468853   1.851287   -2.367382 H        1 UNL1     0.0317
     87 H         5.034897   1.415507   -3.177454 H        1 UNL1     0.0317
     88 H         7.14217   -0.452278   -6.15258 H        1 UNL1     0.0429
     89 H         5.919527   0.047343   -7.323801 H        1 UNL1     0.0429
     90 H         8.768802   0.93823   -6.962153 H        1 UNL1     0.0308
     91 H         6.825913   0.699329   -9.318389 H        1 UNL1     0.0233
     92 H         8.440309   1.436674   -9.478209 H        1 UNL1     0.0233
     93 H         8.280418   -0.24849   -9.031824 H        1 UNL1     0.0233
     94 H         8.115233   3.191303   -8.087091 H        1 UNL1     0.0233
     95 H         6.548756   2.918411   -7.308625 H        1 UNL1     0.0233
     96 H         8.024232   3.028509   -6.321285 H        1 UNL1     0.0233
     97 H         3.27797   10.839117   -0.641259 H        1 UNL1     0.0280
     98 H         4.696676   11.625168   -1.278897 H        1 UNL1     0.0280
     99 H         3.336179   11.228405   -2.37039 H        1 UNL1     0.0280
     100 H         6.135406   10.520329   -4.161509 H        1 UNL1     0.2922
     101 H         4.44491   1.791503   2.581061 H        1 UNL1     0.0236
     102 H         5.968331   2.752679   2.434799 H        1 UNL1     0.0236
     103 H         5.940343   1.047433   2.107916 H        1 UNL1     0.0236
     104 H         4.254524   -0.095227   1.485361 H        1 UNL1     0.2098
     105 H         0.680593   1.221297   -1.027626 H        1 UNL1     0.0234
     106 H         1.360669   -0.426163   -0.907341 H        1 UNL1     0.0234
     107 H         0.0   -0.0   0.0 H        1 UNL1     0.0234
     108 H         2.019205   2.879078   2.101846 H        1 UNL1     0.2098
     109 H         -0.162099   3.866757   -2.153658 H        1 UNL1     0.0234
     110 H         0.816858   2.833946   -1.06382 H        1 UNL1     0.0234
     111 H         -0.361428   2.127336   -2.113196 H        1 UNL1     0.0234
     112 H         -4.058613   -1.723349   0.695064 H        1 UNL1     0.0342
     113 H         -3.285321   -0.805908   2.036168 H        1 UNL1     0.0342
     114 H         -4.265076   0.031885   0.829455 H        1 UNL1     0.0342
     115 H         -1.890638   1.617142   3.950699 H        1 UNL1     0.0234
     116 H         -1.551675   3.225022   3.302152 H        1 UNL1     0.0234
     117 H         -2.98394   2.286088   2.832399 H        1 UNL1     0.0234
     118 H         0.165803   7.21848   -1.301161 H        1 UNL1     0.0309
     119 H         1.34538   8.031733   -2.376 H        1 UNL1     0.0309
     120 H         1.206625   6.288398   -2.315285 H        1 UNL1     0.0309
     121 H         -1.413504   5.570566   3.495321 H        1 UNL1     0.0524
     122 H         -1.34015   6.500976   1.993385 H        1 UNL1     0.0524
     123 H         -2.841563   5.6462   2.427962 H        1 UNL1     0.0524
@<TRIPOS>BOND
     1     1     2    1
     2     1    42    1
     3     2     3    2
     4     3     4    1
     5     4     5    2
     6     5     7    1
     7     6    75    1
     8     6    76    1
     9     6    77    1
    10     7     9   am
    11     9    10    1
    12    10    11    2
    13    10    43    1
    14    11    14    1
    15    11    15    1
    16    12    13   ar
    17    12    27   ar
    18    12    43    1
    19    13    14    1
    20    13    30   ar
    21    14    17    2
    22    15    16    1
    23    16    17    1
    24    16    18    1
    25    16    22    1
    26    18    19    1
    27    19    20    1
    28    20    21    1
    29    21    22    1
    30    23    24    1
    31    23    88    1
    32    23    89    1
    33    24    25    1
    34    24    26    1
    35    24    90    1
    36    25    91    1
    37    25    92    1
    38    25    93    1
    39    26    94    1
    40    26    95    1
    41    26    96    1
    42    27    28   ar
    43    28    29   ar
    44    29    30   ar
    45    29    31    1
    46    30    33    1
    47    31    32    1
    48    32    33    1
    49    32    35    1
    50    34    97    1
    51    34    98    1
    52    34    99    1
    53    35    61    1
    54    36    37    1
    55    36    60    1
    56    37    38    1
    57    38    39    1
    58    39    40    1
    59    40    41    1
    60    41    42    1
    61    45   100    1
    62    47   101    1
    63    47   102    1
    64    47   103    1
    65    48   104    1
    66    49   105    1
    67    49   106    1
    68    49   107    1
    69    50   108    1
    70    51    59    1
    71    52   109    1
    72    52   110    1
    73    52   111    1
    74    53    54    1
    75    54    55    2
    76    54    56    1
    77    56   112    1
    78    56   113    1
    79    56   114    1
    80    57   115    1
    81    57   116    1
    82    57   117    1
    83    58   118    1
    84    58   119    1
    85    58   120    1
    86    59   121    1
    87    59   122    1
    88    59   123    1
    89    60    61    2
    90     1    47    1
    91     1    62    1
    92     2    63    1
    93     3    64    1
    94     4    65    1
    95     5     6    1
    96     7     8    2
    97     9    78    1
    98    15    79    1
    99    18    80    1
   100    18    81    1
   101    19    82    1
   102    19    83    1
   103    20    23    1
   104    21    84    1
   105    21    85    1
   106    22    86    1
   107    22    87    1
   108    27    45    1
   109    28    34    1
   110    32    58    1
   111    33    46    2
   112    36    51    1
   113    36    66    1
   114    37    52    1
   115    37    67    1
   116    38    53    1
   117    38    68    1
   118    42    48    1
   119    42    72    1
   120    43    44    2
   121    60    73    1
   122    61    74    1
   123    39    69    1
   124    39    57    1
   125    40    70    1
   126    40    50    1
   127    41    71    1
   128    41    49    1
