@<TRIPOS>MOLECULE
*****
 123 128 0 0 0
SMALL
GASTEIGER

@<TRIPOS>ATOM
     1 C         5.182254   1.713851   0.454122 C.3        1 UNL1     0.0009
     2 C         6.61899   2.50808   -0.407288 C.2        1 UNL1     -0.0787
     3 C         7.895834   2.399518   -1.081032 C.2        1 UNL1     -0.0649
     4 C         8.776947   3.626851   -1.845003 C.2        1 UNL1     -0.0542
     5 C         9.792903   3.910338   -2.790807 C.2        1 UNL1     0.0115
     6 C         10.911121   3.275166   -3.662283 C.3        1 UNL1     -0.0348
     7 C         9.894628   5.391566   -3.40122 C.2        1 UNL1     0.2441
     8 O         10.726619   6.208282   -3.030691 O.2        1 UNL1     -0.2702
     9 N         9.138324   5.601192   -4.567501 N.am        1 UNL1     -0.2772
     10 C         7.860377   5.997477   -4.246359 C.2        1 UNL1     0.1049
     11 C         7.009765   5.032615   -3.946821 C.2        1 UNL1     0.0801
     12 C         6.582307   7.616206   -2.830878 C.ar        1 UNL1     0.0753
     13 C         5.818336   6.494583   -2.375998 C.ar        1 UNL1     0.0305
     14 C         5.922027   5.186692   -3.01921 C.2        1 UNL1     0.0924
     15 N         7.122121   3.702471   -4.103732 N.pl3        1 UNL1     -0.3170
     16 C         5.850184   3.112843   -3.780052 C.3        1 UNL1     0.1275
     17 N         5.226771   4.074624   -2.798188 N.2        1 UNL1     -0.2557
     18 C         4.98963   3.175087   -5.038335 C.3        1 UNL1     0.0016
     19 C         5.732442   2.483292   -6.170253 C.3        1 UNL1     0.0026
     20 N         5.995489   1.10419   -5.783068 N.3        1 UNL1     -0.3018
     21 C         6.765694   0.941195   -4.548327 C.3        1 UNL1     0.0026
     22 C         5.999014   1.639567   -3.423884 C.3        1 UNL1     0.0016
     23 C         6.427122   0.279154   -6.893768 C.3        1 UNL1     0.0012
     24 C         5.263658   0.035581   -7.867822 C.3        1 UNL1     -0.0339
     25 C         5.288664   1.036008   -9.035117 C.3        1 UNL1     -0.0615
     26 C         5.289878   -1.400448   -8.361698 C.3        1 UNL1     -0.0615
     27 C         6.389945   8.886471   -2.292786 C.ar        1 UNL1     0.1347
     28 C         5.438997   9.164787   -1.327235 C.ar        1 UNL1     0.0342
     29 C         4.732558   8.036258   -0.859764 C.ar        1 UNL1     0.1435
     30 C         4.939823   6.751632   -1.363745 C.ar        1 UNL1     0.0774
     31 O         3.697911   8.158936   0.000156 O.3        1 UNL1     -0.4436
     32 C         2.966784   6.930861   -0.1346 C.3        1 UNL1     0.3143
     33 C         3.969701   5.929564   -0.671045 C.2        1 UNL1     0.2504
     34 C         5.004514   10.53493   -0.886743 C.3        1 UNL1     -0.0327
     35 O         2.611629   6.499566   1.184908 O.2        1 UNL1     -0.4528
     36 C         -0.647257   4.589138   0.813397 C.3        1 UNL1     0.0854
     37 C         -0.967102   3.328746   -0.079146 C.3        1 UNL1     0.0236
     38 C         -1.571301   2.073644   0.715464 C.3        1 UNL1     0.1131
     39 C         -0.840858   1.540525   2.013349 C.3        1 UNL1     0.0200
     40 C         0.819515   1.383509   2.044135 C.3        1 UNL1     0.0661
     41 C         1.765948   0.605457   0.870888 C.3        1 UNL1     0.0091
     42 C         3.472334   0.95488   0.29508 C.3        1 UNL1     0.0661
     43 C         7.523621   7.399436   -3.957465 C.2        1 UNL1     0.2131
     44 O         7.925083   8.293129   -4.680568 O.2        1 UNL1     -0.2851
     45 O         7.206404   9.914889   -2.75882 O.3        1 UNL1     -0.5056
     46 O         3.978172   4.726237   -0.537677 O.2        1 UNL1     -0.2836
     47 C         5.584909   1.284785   1.890699 C.3        1 UNL1     -0.0566
     48 O         3.911601   -0.459131   0.377136 O.3        1 UNL1     -0.3909
     49 C         0.922169   0.375956   -0.363154 C.3        1 UNL1     -0.0577
     50 O         1.430687   2.598024   2.43033 O.3        1 UNL1     -0.3910
     51 O         -0.763664   4.403392   2.206013 O.3        1 UNL1     -0.3753
     52 C         0.068742   3.158472   -1.238018 C.3        1 UNL1     -0.0564
     53 O         -2.186913   1.036904   -0.178136 O.3        1 UNL1     -0.4608
     54 C         -2.428197   -0.267433   0.165979 C.2        1 UNL1     0.3042
     55 O         -1.868897   -1.271463   -0.273279 O.2        1 UNL1     -0.2512
     56 C         -3.462395   -0.423474   1.244311 C.3        1 UNL1     0.0332
     57 C         -1.549051   2.217297   3.277713 C.3        1 UNL1     -0.0567
     58 C         1.886332   7.181046   -1.212357 C.3        1 UNL1     0.0210
     59 C         -1.094858   5.580016   2.942037 C.3        1 UNL1     0.0372
     60 C         0.68456   5.208442   0.572802 C.2        1 UNL1     -0.0208
     61 C         1.6061   5.639221   1.43532 C.2        1 UNL1     0.0882
     62 H         4.71376   2.701504   0.542246 H        1 UNL1     0.0365
     63 H         6.36076   3.563937   -0.302637 H        1 UNL1     0.0576
     64 H         8.345318   1.42902   -1.302853 H        1 UNL1     0.0615
     65 H         8.298491   4.54638   -1.497109 H        1 UNL1     0.0622
     66 H         -1.388691   5.340148   0.506307 H        1 UNL1     0.0645
     67 H         -1.834414   3.642784   -0.685536 H        1 UNL1     0.0362
     68 H         -2.513017   2.51788   1.072321 H        1 UNL1     0.0741
     69 H         -1.178129   0.532194   2.21316 H        1 UNL1     0.0359
     70 H         0.932396   0.724361   2.926089 H        1 UNL1     0.0600
     71 H         1.805193   -0.415043   1.299837 H        1 UNL1     0.0348
     72 H         3.376188   1.44597   1.274315 H        1 UNL1     0.0602
     73 H         0.797116   5.402578   -0.464932 H        1 UNL1     0.0628
     74 H         1.594013   5.431045   2.505719 H        1 UNL1     0.1022
     75 H         10.948907   2.169944   -3.507067 H        1 UNL1     0.0279
     76 H         10.79109   3.356364   -4.740275 H        1 UNL1     0.0279
     77 H         11.920382   3.573582   -3.342844 H        1 UNL1     0.0279
     78 H         9.066883   4.73054   -5.089936 H        1 UNL1     0.1553
     79 H         7.780391   3.268495   -4.724439 H        1 UNL1     0.1484
     80 H         4.026236   2.691291   -4.836893 H        1 UNL1     0.0317
     81 H         4.768485   4.212793   -5.310205 H        1 UNL1     0.0317
     82 H         6.665152   3.007549   -6.425439 H        1 UNL1     0.0428
     83 H         5.101931   2.540819   -7.058057 H        1 UNL1     0.0428
     84 H         6.880759   -0.101885   -4.237591 H        1 UNL1     0.0428
     85 H         7.797627   1.301813   -4.659623 H        1 UNL1     0.0428
     86 H         6.51955   1.38762   -2.518593 H        1 UNL1     0.0317
     87 H         5.017103   1.169043   -3.291397 H        1 UNL1     0.0317
     88 H         7.223503   0.814225   -7.427406 H        1 UNL1     0.0429
     89 H         6.855394   -0.668831   -6.543509 H        1 UNL1     0.0429
     90 H         4.315024   0.1501   -7.330057 H        1 UNL1     0.0308
     91 H         6.234929   0.985468   -9.582045 H        1 UNL1     0.0233
     92 H         4.464396   0.844134   -9.726041 H        1 UNL1     0.0233
     93 H         5.170618   2.073213   -8.698802 H        1 UNL1     0.0233
     94 H         4.587321   -1.52702   -9.192498 H        1 UNL1     0.0233
     95 H         6.290195   -1.652502   -8.724735 H        1 UNL1     0.0233
     96 H         5.015745   -2.100607   -7.567597 H        1 UNL1     0.0233
     97 H         4.215653   10.492315   -0.141684 H        1 UNL1     0.0280
     98 H         5.824225   11.100335   -0.424522 H        1 UNL1     0.0280
     99 H         4.629146   11.100126   -1.755505 H        1 UNL1     0.0280
     100 H         6.742524   10.668019   -3.08012 H        1 UNL1     0.2922
     101 H         4.72239   0.858284   2.402378 H        1 UNL1     0.0236
     102 H         6.045014   2.088251   2.46492 H        1 UNL1     0.0236
     103 H         6.335539   0.476868   1.88653 H        1 UNL1     0.0236
     104 H         4.335895   -0.586104   1.24824 H        1 UNL1     0.2098
     105 H         0.712067   1.274974   -0.937118 H        1 UNL1     0.0234
     106 H         1.281818   -0.416071   -1.019868 H        1 UNL1     0.0234
     107 H         0.0   -0.0   0.0 H        1 UNL1     0.0234
     108 H         1.232826   3.255915   1.736213 H        1 UNL1     0.2098
     109 H         1.095204   3.038706   -0.864194 H        1 UNL1     0.0234
     110 H         -0.173835   2.331507   -1.914057 H        1 UNL1     0.0234
     111 H         0.091841   4.039668   -1.892928 H        1 UNL1     0.0234
     112 H         -3.600788   -1.483772   1.476606 H        1 UNL1     0.0342
     113 H         -3.209442   0.14282   2.139392 H        1 UNL1     0.0342
     114 H         -4.416793   -0.034848   0.863183 H        1 UNL1     0.0342
     115 H         -2.620105   1.976559   3.323286 H        1 UNL1     0.0234
     116 H         -1.108336   1.936635   4.236383 H        1 UNL1     0.0234
     117 H         -1.580307   3.319284   3.226842 H        1 UNL1     0.0234
     118 H         0.991351   7.675127   -0.795344 H        1 UNL1     0.0309
     119 H         2.254291   7.764566   -2.062247 H        1 UNL1     0.0309
     120 H         1.488552   6.250875   -1.632665 H        1 UNL1     0.0309
     121 H         -0.286523   6.296653   2.799268 H        1 UNL1     0.0524
     122 H         -2.024108   6.051518   2.58118 H        1 UNL1     0.0524
     123 H         -1.205372   5.34487   3.996829 H        1 UNL1     0.0524
@<TRIPOS>BOND
     1     1     2    1
     2     1    42    1
     3     2     3    2
     4     3     4    1
     5     4     5    2
     6     5     7    1
     7     6    75    1
     8     6    76    1
     9     6    77    1
    10     7     9   am
    11     9    10    1
    12    10    11    2
    13    10    43    1
    14    11    14    1
    15    11    15    1
    16    12    13   ar
    17    12    27   ar
    18    12    43    1
    19    13    14    1
    20    13    30   ar
    21    14    17    2
    22    15    16    1
    23    16    17    1
    24    16    18    1
    25    16    22    1
    26    18    19    1
    27    19    20    1
    28    20    21    1
    29    21    22    1
    30    23    24    1
    31    23    88    1
    32    23    89    1
    33    24    25    1
    34    24    26    1
    35    24    90    1
    36    25    91    1
    37    25    92    1
    38    25    93    1
    39    26    94    1
    40    26    95    1
    41    26    96    1
    42    27    28   ar
    43    28    29   ar
    44    29    30   ar
    45    29    31    1
    46    30    33    1
    47    31    32    1
    48    32    33    1
    49    32    35    1
    50    34    97    1
    51    34    98    1
    52    34    99    1
    53    35    61    1
    54    36    37    1
    55    36    60    1
    56    37    38    1
    57    38    39    1
    58    39    40    1
    59    40    41    1
    60    41    42    1
    61    45   100    1
    62    47   101    1
    63    47   102    1
    64    47   103    1
    65    48   104    1
    66    49   105    1
    67    49   106    1
    68    49   107    1
    69    50   108    1
    70    51    59    1
    71    52   109    1
    72    52   110    1
    73    52   111    1
    74    53    54    1
    75    54    55    2
    76    54    56    1
    77    56   112    1
    78    56   113    1
    79    56   114    1
    80    57   115    1
    81    57   116    1
    82    57   117    1
    83    58   118    1
    84    58   119    1
    85    58   120    1
    86    59   121    1
    87    59   122    1
    88    59   123    1
    89    60    61    2
    90     1    47    1
    91     1    62    1
    92     2    63    1
    93     3    64    1
    94     4    65    1
    95     5     6    1
    96     7     8    2
    97     9    78    1
    98    15    79    1
    99    18    80    1
   100    18    81    1
   101    19    82    1
   102    19    83    1
   103    20    23    1
   104    21    84    1
   105    21    85    1
   106    22    86    1
   107    22    87    1
   108    27    45    1
   109    28    34    1
   110    32    58    1
   111    33    46    2
   112    36    51    1
   113    36    66    1
   114    37    52    1
   115    37    67    1
   116    38    53    1
   117    38    68    1
   118    42    48    1
   119    42    72    1
   120    43    44    2
   121    60    73    1
   122    61    74    1
   123    39    69    1
   124    39    57    1
   125    40    70    1
   126    40    50    1
   127    41    71    1
   128    41    49    1
