@<TRIPOS>MOLECULE
*****
 123 128 0 0 0
SMALL
GASTEIGER

@<TRIPOS>ATOM
     1 C         -0.752018   2.773057   3.203415 C.3        1 UNL1     0.0009
     2 C         -2.28003   3.127242   4.19173 C.2        1 UNL1     -0.0787
     3 C         -3.539542   3.823117   4.35121 C.2        1 UNL1     -0.0649
     4 C         -4.693479   3.619406   5.573212 C.2        1 UNL1     -0.0542
     5 C         -6.048222   3.819892   5.935916 C.2        1 UNL1     0.0115
     6 C         -7.372323   4.514524   5.51453 C.3        1 UNL1     -0.0348
     7 C         -6.653909   2.987841   7.167915 C.2        1 UNL1     0.2441
     8 O         -6.821005   3.471154   8.279226 O.2        1 UNL1     -0.2702
     9 N         -7.221196   1.749537   6.820147 N.am        1 UNL1     -0.2772
     10 C         -6.263692   0.76147   6.835395 C.2        1 UNL1     0.1049
     11 C         -5.521938   0.652957   5.748083 C.2        1 UNL1     0.0801
     12 C         -4.423188   -0.195704   8.233142 C.ar        1 UNL1     0.0753
     13 C         -3.594733   -0.096924   7.070165 C.ar        1 UNL1     0.0305
     14 C         -4.154765   0.207805   5.755419 C.2        1 UNL1     0.0924
     15 N         -5.679316   1.211539   4.535752 N.pl3        1 UNL1     -0.3170
     16 C         -4.696761   0.636306   3.65601 C.3        1 UNL1     0.1275
     17 N         -3.5598   0.240968   4.566368 N.2        1 UNL1     -0.2557
     18 C         -5.280035   -0.666268   3.116756 C.3        1 UNL1     0.0016
     19 C         -6.615045   -0.364101   2.454914 C.3        1 UNL1     0.0026
     20 N         -6.398442   0.596741   1.382116 N.3        1 UNL1     -0.3018
     21 C         -5.782736   1.85998   1.793822 C.3        1 UNL1     0.0026
     22 C         -4.441092   1.533105   2.451879 C.3        1 UNL1     0.0016
     23 C         -7.541855   0.725259   0.500792 C.3        1 UNL1     0.0012
     24 C         -8.55792   1.722933   1.078733 C.3        1 UNL1     -0.0339
     25 C         -9.05768   2.702639   0.004269 C.3        1 UNL1     -0.0615
     26 C         -9.707547   0.975805   1.732137 C.3        1 UNL1     -0.0615
     27 C         -3.901563   -0.604463   9.458271 C.ar        1 UNL1     0.1347
     28 C         -2.58082   -0.977255   9.63352 C.ar        1 UNL1     0.0342
     29 C         -1.773136   -0.825269   8.486476 C.ar        1 UNL1     0.1435
     30 C         -2.273999   -0.382439   7.261626 C.ar        1 UNL1     0.0774
     31 O         -0.490809   -1.249807   8.466192 O.3        1 UNL1     -0.4436
     32 C         -0.170744   -1.370441   7.071961 C.3        1 UNL1     0.3143
     33 C         -1.141746   -0.449271   6.361458 C.2        1 UNL1     0.2504
     34 C         -2.010988   -1.660998   10.845084 C.3        1 UNL1     -0.0327
     35 O         1.138897   -0.819414   6.886326 O.2        1 UNL1     -0.4528
     36 C         2.662453   -2.715963   3.972571 C.3        1 UNL1     0.0854
     37 C         2.124381   -2.878213   2.498911 C.3        1 UNL1     0.0236
     38 C         3.153137   -2.435331   1.351191 C.3        1 UNL1     0.1131
     39 C         3.853268   -1.018946   1.428264 C.3        1 UNL1     0.0200
     40 C         2.974505   0.336359   1.844628 C.3        1 UNL1     0.0661
     41 C         1.495778   0.810317   1.161737 C.3        1 UNL1     0.0091
     42 C         0.070932   1.695029   1.905042 C.3        1 UNL1     0.0661
     43 C         -5.875007   0.065467   8.071056 C.2        1 UNL1     0.2131
     44 O         -6.72338   -0.348965   8.839981 O.2        1 UNL1     -0.2851
     45 O         -4.765595   -0.629909   10.551084 O.3        1 UNL1     -0.5056
     46 O         -1.002817   0.119233   5.301574 O.2        1 UNL1     -0.2836
     47 C         0.24076   3.962576   3.300465 C.3        1 UNL1     -0.0566
     48 O         -0.063227   2.656306   0.783854 O.3        1 UNL1     -0.3909
     49 C         0.931359   -0.347077   0.368412 C.3        1 UNL1     -0.0577
     50 O         2.930785   0.493509   3.248593 O.3        1 UNL1     -0.3910
     51 O         3.896059   -2.04712   4.107837 O.3        1 UNL1     -0.3753
     52 C         0.592584   -2.579424   2.402616 C.3        1 UNL1     -0.0564
     53 O         2.770101   -2.917614   -0.01739 O.3        1 UNL1     -0.4608
     54 C         3.608182   -3.541837   -0.903897 C.2        1 UNL1     0.3042
     55 O         4.492964   -3.025618   -1.585454 O.2        1 UNL1     -0.2512
     56 C         3.415585   -5.030316   -0.967523 C.3        1 UNL1     0.0332
     57 C         5.280526   -1.223496   2.120557 C.3        1 UNL1     -0.0567
     58 C         -0.487656   -2.831157   6.675215 C.3        1 UNL1     0.0210
     59 C         5.016766   -2.898332   4.343036 C.3        1 UNL1     0.0372
     60 C         1.71584   -2.06632   4.919697 C.2        1 UNL1     -0.0208
     61 C         1.92156   -1.114113   5.83059 C.2        1 UNL1     0.0882
     62 H         -0.448165   2.048616   3.968641 H        1 UNL1     0.0365
     63 H         -2.07924   2.544251   5.092994 H        1 UNL1     0.0576
     64 H         -3.945288   4.460438   3.56235 H        1 UNL1     0.0615
     65 H         -4.165059   3.042575   6.337097 H        1 UNL1     0.0622
     66 H         2.791368   -3.745809   4.334296 H        1 UNL1     0.0645
     67 H         2.083435   -3.970861   2.347241 H        1 UNL1     0.0362
     68 H         3.955229   -3.167434   1.530621 H        1 UNL1     0.0741
     69 H         4.231813   -0.763999   0.447389 H        1 UNL1     0.0359
     70 H         3.668032   1.126814   1.499286 H        1 UNL1     0.0600
     71 H         1.860264   1.471657   0.351344 H        1 UNL1     0.0348
     72 H         0.929646   1.897723   2.561426 H        1 UNL1     0.0602
     73 H         0.780987   -2.567895   4.878211 H        1 UNL1     0.0628
     74 H         2.829127   -0.51358   5.900725 H        1 UNL1     0.1022
     75 H         -7.314309   5.614223   5.699814 H        1 UNL1     0.0279
     76 H         -7.629871   4.468106   4.458791 H        1 UNL1     0.0279
     77 H         -8.222579   4.231765   6.152349 H        1 UNL1     0.0279
     78 H         -7.595975   1.798362   5.875037 H        1 UNL1     0.1553
     79 H         -6.547273   1.592541   4.206478 H        1 UNL1     0.1484
     80 H         -4.57141   -1.108005   2.405782 H        1 UNL1     0.0317
     81 H         -5.414028   -1.397558   3.921064 H        1 UNL1     0.0317
     82 H         -7.352912   0.011061   3.17929 H        1 UNL1     0.0428
     83 H         -7.014177   -1.306696   2.079071 H        1 UNL1     0.0428
     84 H         -5.558032   2.531025   0.958946 H        1 UNL1     0.0428
     85 H         -6.450186   2.449332   2.437631 H        1 UNL1     0.0428
     86 H         -3.961973   2.480036   2.618478 H        1 UNL1     0.0317
     87 H         -3.780367   1.037916   1.729848 H        1 UNL1     0.0317
     88 H         -7.187182   1.107732   -0.465239 H        1 UNL1     0.0429
     89 H         -8.008976   -0.2493   0.30894 H        1 UNL1     0.0429
     90 H         -8.080227   2.298143   1.880703 H        1 UNL1     0.0308
     91 H         -9.055134   2.240489   -0.987453 H        1 UNL1     0.0233
     92 H         -10.067824   3.048122   0.236345 H        1 UNL1     0.0233
     93 H         -8.434497   3.602645   -0.062573 H        1 UNL1     0.0233
     94 H         -10.497372   1.677095   2.022315 H        1 UNL1     0.0233
     95 H         -10.136093   0.258574   1.026523 H        1 UNL1     0.0233
     96 H         -9.377572   0.438069   2.625404 H        1 UNL1     0.0233
     97 H         -2.78032   -2.144775   11.43949 H        1 UNL1     0.0280
     98 H         -1.297157   -2.450861   10.577093 H        1 UNL1     0.0280
     99 H         -1.498514   -0.919971   11.480178 H        1 UNL1     0.0280
     100 H         -5.637547   -0.326964   10.367928 H        1 UNL1     0.2922
     101 H         0.417442   4.375942   2.307707 H        1 UNL1     0.0236
     102 H         1.170007   3.705063   3.807583 H        1 UNL1     0.0236
     103 H         -0.174197   4.801823   3.883275 H        1 UNL1     0.0236
     104 H         0.832267   2.97998   0.56409 H        1 UNL1     0.2098
     105 H         1.536481   -0.644557   -0.484315 H        1 UNL1     0.0234
     106 H         0.66308   -1.219555   0.96401 H        1 UNL1     0.0234
     107 H         -0.0   0.0   0.0 H        1 UNL1     0.0234
     108 H         3.844118   0.395058   3.580103 H        1 UNL1     0.2098
     109 H         0.386176   -1.620311   1.907428 H        1 UNL1     0.0234
     110 H         0.028909   -3.376774   1.906383 H        1 UNL1     0.0234
     111 H         0.131264   -2.506149   3.396477 H        1 UNL1     0.0234
     112 H         2.349072   -5.270024   -0.918173 H        1 UNL1     0.0342
     113 H         3.873055   -5.464896   -1.855051 H        1 UNL1     0.0342
     114 H         3.902153   -5.477071   -0.089555 H        1 UNL1     0.0342
     115 H         5.905974   -1.935279   1.564348 H        1 UNL1     0.0234
     116 H         5.854512   -0.30184   2.235179 H        1 UNL1     0.0234
     117 H         5.224527   -1.71476   3.107201 H        1 UNL1     0.0234
     118 H         -1.199481   -2.886921   5.833074 H        1 UNL1     0.0309
     119 H         0.406096   -3.412713   6.427823 H        1 UNL1     0.0309
     120 H         -0.99687   -3.382463   7.473255 H        1 UNL1     0.0309
     121 H         4.859072   -3.394034   5.300516 H        1 UNL1     0.0524
     122 H         5.114315   -3.683444   3.574843 H        1 UNL1     0.0524
     123 H         5.932813   -2.315013   4.369323 H        1 UNL1     0.0524
@<TRIPOS>BOND
     1     1     2    1
     2     1    42    1
     3     2     3    2
     4     3     4    1
     5     4     5    2
     6     5     7    1
     7     6    75    1
     8     6    76    1
     9     6    77    1
    10     7     9   am
    11     9    10    1
    12    10    11    2
    13    10    43    1
    14    11    14    1
    15    11    15    1
    16    12    13   ar
    17    12    27   ar
    18    12    43    1
    19    13    14    1
    20    13    30   ar
    21    14    17    2
    22    15    16    1
    23    16    17    1
    24    16    18    1
    25    16    22    1
    26    18    19    1
    27    19    20    1
    28    20    21    1
    29    21    22    1
    30    23    24    1
    31    23    88    1
    32    23    89    1
    33    24    25    1
    34    24    26    1
    35    24    90    1
    36    25    91    1
    37    25    92    1
    38    25    93    1
    39    26    94    1
    40    26    95    1
    41    26    96    1
    42    27    28   ar
    43    28    29   ar
    44    29    30   ar
    45    29    31    1
    46    30    33    1
    47    31    32    1
    48    32    33    1
    49    32    35    1
    50    34    97    1
    51    34    98    1
    52    34    99    1
    53    35    61    1
    54    36    37    1
    55    36    60    1
    56    37    38    1
    57    38    39    1
    58    39    40    1
    59    40    41    1
    60    41    42    1
    61    45   100    1
    62    47   101    1
    63    47   102    1
    64    47   103    1
    65    48   104    1
    66    49   105    1
    67    49   106    1
    68    49   107    1
    69    50   108    1
    70    51    59    1
    71    52   109    1
    72    52   110    1
    73    52   111    1
    74    53    54    1
    75    54    55    2
    76    54    56    1
    77    56   112    1
    78    56   113    1
    79    56   114    1
    80    57   115    1
    81    57   116    1
    82    57   117    1
    83    58   118    1
    84    58   119    1
    85    58   120    1
    86    59   121    1
    87    59   122    1
    88    59   123    1
    89    60    61    2
    90     1    47    1
    91     1    62    1
    92     2    63    1
    93     3    64    1
    94     4    65    1
    95     5     6    1
    96     7     8    2
    97     9    78    1
    98    15    79    1
    99    18    80    1
   100    18    81    1
   101    19    82    1
   102    19    83    1
   103    20    23    1
   104    21    84    1
   105    21    85    1
   106    22    86    1
   107    22    87    1
   108    27    45    1
   109    28    34    1
   110    32    58    1
   111    33    46    2
   112    36    51    1
   113    36    66    1
   114    37    52    1
   115    37    67    1
   116    38    53    1
   117    38    68    1
   118    42    48    1
   119    42    72    1
   120    43    44    2
   121    60    73    1
   122    61    74    1
   123    39    69    1
   124    39    57    1
   125    40    70    1
   126    40    50    1
   127    41    71    1
   128    41    49    1
