@<TRIPOS>MOLECULE
*****
 123 128 0 0 0
SMALL
GASTEIGER

@<TRIPOS>ATOM
     1 C         0.260759   0.018193   4.118988 C.3        1 UNL1     0.0009
     2 C         -0.933506   -0.71944   5.330047 C.2        1 UNL1     -0.0787
     3 C         -2.053459   -0.575433   6.236145 C.2        1 UNL1     -0.0649
     4 C         -2.870674   -1.793081   7.082225 C.2        1 UNL1     -0.0542
     5 C         -4.068926   -2.134739   7.75642 C.2        1 UNL1     0.0115
     6 C         -5.399026   -1.564986   8.321698 C.3        1 UNL1     -0.0348
     7 C         -4.403529   -3.684348   8.008888 C.2        1 UNL1     0.2441
     8 O         -4.244601   -4.231641   9.091357 O.2        1 UNL1     -0.2702
     9 N         -5.134366   -4.304245   6.980415 N.am        1 UNL1     -0.2772
     10 C         -4.283629   -4.811922   6.025515 C.2        1 UNL1     0.1049
     11 C         -3.853571   -3.956945   5.115413 C.2        1 UNL1     0.0801
     12 C         -2.227546   -6.208014   5.741291 C.ar        1 UNL1     0.0753
     13 C         -1.717174   -5.149982   4.923551 C.ar        1 UNL1     0.0305
     14 C         -2.568056   -4.048856   4.477934 C.2        1 UNL1     0.0924
     15 N         -4.270658   -2.710129   4.836097 N.pl3        1 UNL1     -0.3170
     16 C         -3.591643   -2.276356   3.644026 C.3        1 UNL1     0.1275
     17 N         -2.294465   -3.04775   3.646152 N.2        1 UNL1     -0.2557
     18 C         -4.391567   -2.796267   2.453431 C.3        1 UNL1     0.0016
     19 C         -5.823623   -2.300471   2.575877 C.3        1 UNL1     0.0026
     20 N         -5.813668   -0.844417   2.60478 N.3        1 UNL1     -0.3018
     21 C         -5.017963   -0.249352   3.680475 C.3        1 UNL1     0.0026
     22 C         -3.58238   -0.757253   3.53545 C.3        1 UNL1     0.0016
     23 C         -7.130253   -0.267663   2.418764 C.3        1 UNL1     0.0012
     24 C         -7.609432   -0.474196   0.973257 C.3        1 UNL1     -0.0339
     25 C         -8.572757   -1.667675   0.865239 C.3        1 UNL1     -0.0615
     26 C         -8.240355   0.802908   0.446264 C.3        1 UNL1     -0.0615
     27 C         -1.444511   -7.314523   6.061624 C.ar        1 UNL1     0.1347
     28 C         -0.155454   -7.492661   5.591892 C.ar        1 UNL1     0.0342
     29 C         0.343051   -6.415354   4.828959 C.ar        1 UNL1     0.1435
     30 C         -0.417272   -5.284061   4.530117 C.ar        1 UNL1     0.0774
     31 O         1.541335   -6.485689   4.209142 O.3        1 UNL1     -0.4436
     32 C         1.485856   -5.469948   3.196193 C.3        1 UNL1     0.3143
     33 C         0.44006   -4.485471   3.679234 C.2        1 UNL1     0.2504
     34 C         0.649398   -8.759083   5.684023 C.3        1 UNL1     -0.0327
     35 O         2.743629   -4.783641   3.211806 O.2        1 UNL1     -0.4528
     36 C         3.324793   -3.595059   -0.345948 C.3        1 UNL1     0.0854
     37 C         2.41864   -2.672286   -1.248666 C.3        1 UNL1     0.0236
     38 C         3.15252   -1.374656   -1.839699 C.3        1 UNL1     0.1131
     39 C         3.956283   -0.417366   -0.87025 C.3        1 UNL1     0.0200
     40 C         3.319582   0.014469   0.609807 C.3        1 UNL1     0.0661
     41 C         1.756872   0.615679   0.882009 C.3        1 UNL1     0.0091
     42 C         0.640633   0.418877   2.324466 C.3        1 UNL1     0.0661
     43 C         -3.648219   -6.130881   6.163188 C.2        1 UNL1     0.2131
     44 O         -4.302388   -7.09941   6.504882 O.2        1 UNL1     -0.2851
     45 O         -2.001376   -8.277856   6.900271 O.3        1 UNL1     -0.5056
     46 O         0.348169   -3.303263   3.434707 O.2        1 UNL1     -0.2836
     47 C         1.334225   0.857221   4.863087 C.3        1 UNL1     -0.0566
     48 O         0.30017   1.860123   2.401991 O.3        1 UNL1     -0.3909
     49 C         0.921678   0.382777   -0.357226 C.3        1 UNL1     -0.0577
     50 O         3.646753   -0.944549   1.595183 O.3        1 UNL1     -0.3910
     51 O         4.599995   -3.084871   -0.028147 O.3        1 UNL1     -0.3753
     52 C         0.940506   -2.632025   -0.740288 C.3        1 UNL1     -0.0564
     53 O         2.397882   -0.71422   -2.956244 O.3        1 UNL1     -0.4608
     54 C         2.565842   0.580503   -3.372672 C.2        1 UNL1     0.3042
     55 O         1.768829   1.510937   -3.259088 O.2        1 UNL1     -0.2512
     56 C         3.914406   0.847265   -3.978415 C.3        1 UNL1     0.0332
     57 C         5.492541   -0.859609   -0.920309 C.3        1 UNL1     -0.0567
     58 C         0.966773   -6.159673   1.913087 C.3        1 UNL1     0.0210
     59 C         5.59177   -4.074866   0.240475 C.3        1 UNL1     0.0372
     60 C         2.703307   -4.026205   0.935859 C.2        1 UNL1     -0.0208
     61 C         3.2068   -4.066323   2.170213 C.2        1 UNL1     0.0882
     62 H         0.692506   -0.9784   3.96698 H        1 UNL1     0.0365
     63 H         -0.555594   -1.742123   5.39148 H        1 UNL1     0.0576
     64 H         -2.596164   0.367838   6.330051 H        1 UNL1     0.0615
     65 H         -2.2114   -2.660654   6.991908 H        1 UNL1     0.0622
     66 H         3.461688   -4.511176   -0.937587 H        1 UNL1     0.0645
     67 H         2.256325   -3.268392   -2.163473 H        1 UNL1     0.0362
     68 H         3.914947   -1.863444   -2.46525 H        1 UNL1     0.0741
     69 H         4.091307   0.538643   -1.358332 H        1 UNL1     0.0359
     70 H         3.96124   0.884605   0.846867 H        1 UNL1     0.0600
     71 H         1.953055   1.703483   0.810227 H        1 UNL1     0.0348
     72 H         1.651075   0.182629   2.688486 H        1 UNL1     0.0602
     73 H         1.752865   -4.455234   0.736256 H        1 UNL1     0.0628
     74 H         4.145859   -3.599043   2.468636 H        1 UNL1     0.1022
     75 H         -5.4783   -0.471357   8.110214 H        1 UNL1     0.0279
     76 H         -6.31705   -1.954678   7.8876 H        1 UNL1     0.0279
     77 H         -5.433371   -1.576272   9.420968 H        1 UNL1     0.0279
     78 H         -5.73235   -3.618295   6.524384 H        1 UNL1     0.1553
     79 H         -5.161776   -2.34472   5.11773 H        1 UNL1     0.1484
     80 H         -3.923391   -2.443321   1.526605 H        1 UNL1     0.0317
     81 H         -4.372493   -3.890786   2.417154 H        1 UNL1     0.0317
     82 H         -6.321711   -2.710656   3.466701 H        1 UNL1     0.0428
     83 H         -6.376698   -2.684133   1.717994 H        1 UNL1     0.0428
     84 H         -4.962013   0.842594   3.632153 H        1 UNL1     0.0428
     85 H         -5.45215   -0.450745   4.669535 H        1 UNL1     0.0428
     86 H         -3.005099   -0.20201   4.251299 H        1 UNL1     0.0317
     87 H         -3.167317   -0.437464   2.571835 H        1 UNL1     0.0317
     88 H         -7.826644   -0.78114   3.094542 H        1 UNL1     0.0429
     89 H         -7.142113   0.795391   2.691799 H        1 UNL1     0.0429
     90 H         -6.741688   -0.666646   0.331231 H        1 UNL1     0.0308
     91 H         -9.437454   -1.541711   1.523672 H        1 UNL1     0.0233
     92 H         -8.920116   -1.791885   -0.16312 H        1 UNL1     0.0233
     93 H         -8.096302   -2.615469   1.143648 H        1 UNL1     0.0233
     94 H         -8.751195   0.608053   -0.502899 H        1 UNL1     0.0233
     95 H         -8.982453   1.17451   1.158418 H        1 UNL1     0.0233
     96 H         -7.489238   1.580432   0.281192 H        1 UNL1     0.0233
     97 H         1.61673   -8.663213   5.199971 H        1 UNL1     0.0280
     98 H         0.860321   -9.040636   6.723973 H        1 UNL1     0.0280
     99 H         0.09982   -9.581804   5.198028 H        1 UNL1     0.0280
     100 H         -1.982354   -9.153916   6.557082 H        1 UNL1     0.2922
     101 H         2.062028   1.240384   4.148143 H        1 UNL1     0.0236
     102 H         1.809706   0.316728   5.680871 H        1 UNL1     0.0236
     103 H         0.903745   1.756923   5.333637 H        1 UNL1     0.0236
     104 H         0.909105   2.272854   3.045281 H        1 UNL1     0.2098
     105 H         0.708822   1.28141   -0.930779 H        1 UNL1     0.0234
     106 H         1.290354   -0.405631   -1.013288 H        1 UNL1     0.0234
     107 H         0.0   -0.0   0.0 H        1 UNL1     0.0234
     108 H         3.194056   -1.775333   1.353043 H        1 UNL1     0.2098
     109 H         0.865835   -2.265314   0.292988 H        1 UNL1     0.0234
     110 H         0.27905   -2.044689   -1.386241 H        1 UNL1     0.0234
     111 H         0.487224   -3.632247   -0.734194 H        1 UNL1     0.0234
     112 H         3.990214   1.899416   -4.269235 H        1 UNL1     0.0342
     113 H         4.726584   0.567396   -3.309173 H        1 UNL1     0.0342
     114 H         4.008234   0.238737   -4.888391 H        1 UNL1     0.0342
     115 H         5.903024   -0.795584   -1.937458 H        1 UNL1     0.0234
     116 H         6.143864   -0.276678   -0.266076 H        1 UNL1     0.0234
     117 H         5.65034   -1.928107   -0.6937 H        1 UNL1     0.0234
     118 H         1.774771   -6.671719   1.361766 H        1 UNL1     0.0309
     119 H         0.157502   -6.871276   2.10519 H        1 UNL1     0.0309
     120 H         0.574877   -5.445193   1.180938 H        1 UNL1     0.0309
     121 H         5.284737   -4.614674   1.135849 H        1 UNL1     0.0524
     122 H         5.680795   -4.810299   -0.576379 H        1 UNL1     0.0524
     123 H         6.558406   -3.605188   0.398941 H        1 UNL1     0.0524
@<TRIPOS>BOND
     1     1     2    1
     2     1    42    1
     3     2     3    2
     4     3     4    1
     5     4     5    2
     6     5     7    1
     7     6    75    1
     8     6    76    1
     9     6    77    1
    10     7     9   am
    11     9    10    1
    12    10    11    2
    13    10    43    1
    14    11    14    1
    15    11    15    1
    16    12    13   ar
    17    12    27   ar
    18    12    43    1
    19    13    14    1
    20    13    30   ar
    21    14    17    2
    22    15    16    1
    23    16    17    1
    24    16    18    1
    25    16    22    1
    26    18    19    1
    27    19    20    1
    28    20    21    1
    29    21    22    1
    30    23    24    1
    31    23    88    1
    32    23    89    1
    33    24    25    1
    34    24    26    1
    35    24    90    1
    36    25    91    1
    37    25    92    1
    38    25    93    1
    39    26    94    1
    40    26    95    1
    41    26    96    1
    42    27    28   ar
    43    28    29   ar
    44    29    30   ar
    45    29    31    1
    46    30    33    1
    47    31    32    1
    48    32    33    1
    49    32    35    1
    50    34    97    1
    51    34    98    1
    52    34    99    1
    53    35    61    1
    54    36    37    1
    55    36    60    1
    56    37    38    1
    57    38    39    1
    58    39    40    1
    59    40    41    1
    60    41    42    1
    61    45   100    1
    62    47   101    1
    63    47   102    1
    64    47   103    1
    65    48   104    1
    66    49   105    1
    67    49   106    1
    68    49   107    1
    69    50   108    1
    70    51    59    1
    71    52   109    1
    72    52   110    1
    73    52   111    1
    74    53    54    1
    75    54    55    2
    76    54    56    1
    77    56   112    1
    78    56   113    1
    79    56   114    1
    80    57   115    1
    81    57   116    1
    82    57   117    1
    83    58   118    1
    84    58   119    1
    85    58   120    1
    86    59   121    1
    87    59   122    1
    88    59   123    1
    89    60    61    2
    90     1    47    1
    91     1    62    1
    92     2    63    1
    93     3    64    1
    94     4    65    1
    95     5     6    1
    96     7     8    2
    97     9    78    1
    98    15    79    1
    99    18    80    1
   100    18    81    1
   101    19    82    1
   102    19    83    1
   103    20    23    1
   104    21    84    1
   105    21    85    1
   106    22    86    1
   107    22    87    1
   108    27    45    1
   109    28    34    1
   110    32    58    1
   111    33    46    2
   112    36    51    1
   113    36    66    1
   114    37    52    1
   115    37    67    1
   116    38    53    1
   117    38    68    1
   118    42    48    1
   119    42    72    1
   120    43    44    2
   121    60    73    1
   122    61    74    1
   123    39    69    1
   124    39    57    1
   125    40    70    1
   126    40    50    1
   127    41    71    1
   128    41    49    1
