@<TRIPOS>MOLECULE
*****
 123 128 0 0 0
SMALL
GASTEIGER

@<TRIPOS>ATOM
     1 C         2.34062   -3.363272   -3.502681 C.3        1 UNL1     0.0009
     2 C         2.218268   -4.184929   -5.160072 C.2        1 UNL1     -0.0787
     3 C         1.809652   -5.306992   -5.978641 C.2        1 UNL1     -0.0649
     4 C         1.875206   -5.44334   -7.6649 C.2        1 UNL1     -0.0542
     5 C         1.36722   -6.130667   -8.794772 C.2        1 UNL1     0.0115
     6 C         0.513734   -7.347607   -9.24637 C.3        1 UNL1     -0.0348
     7 C         1.546215   -5.474143   -10.248706 C.2        1 UNL1     0.2441
     8 O         2.395272   -5.846285   -11.046915 O.2        1 UNL1     -0.2702
     9 N         0.498916   -4.623794   -10.643957 N.am        1 UNL1     -0.2772
     10 C         0.73572   -3.338388   -10.213865 C.2        1 UNL1     0.1049
     11 C         0.395235   -3.070024   -8.966359 C.2        1 UNL1     0.0801
     12 C         2.490797   -1.556816   -10.158757 C.ar        1 UNL1     0.0753
     13 C         2.227278   -1.450243   -8.755971 C.ar        1 UNL1     0.0305
     14 C         1.07862   -2.111465   -8.140813 C.2        1 UNL1     0.0924
     15 N         -0.340673   -3.785731   -8.098758 N.pl3        1 UNL1     -0.3170
     16 C         -0.559984   -2.971852   -6.932672 C.3        1 UNL1     0.1275
     17 N         0.628982   -2.043227   -6.890974 N.2        1 UNL1     -0.2557
     18 C         -1.774168   -2.09276   -7.216671 C.3        1 UNL1     0.0016
     19 C         -2.946283   -2.987377   -7.587343 C.3        1 UNL1     0.0026
     20 N         -3.206635   -3.899216   -6.481995 N.3        1 UNL1     -0.3018
     21 C         -2.075799   -4.744846   -6.094066 C.3        1 UNL1     0.0026
     22 C         -0.911325   -3.825605   -5.721386 C.3        1 UNL1     0.0016
     23 C         -4.477528   -4.585178   -6.604187 C.3        1 UNL1     0.0012
     24 C         -4.619702   -5.211068   -8.000541 C.3        1 UNL1     -0.0339
     25 C         -6.026569   -4.984245   -8.577891 C.3        1 UNL1     -0.0615
     26 C         -3.542334   -4.671582   -8.925211 C.3        1 UNL1     -0.0615
     27 C         3.515094   -0.827664   -10.758149 C.ar        1 UNL1     0.1347
     28 C         4.313477   0.066681   -10.067654 C.ar        1 UNL1     0.0342
     29 C         4.067841   0.118533   -8.67908 C.ar        1 UNL1     0.1435
     30 C         3.069062   -0.633042   -8.058763 C.ar        1 UNL1     0.0774
     31 O         4.687313   1.020693   -7.887013 O.3        1 UNL1     -0.4436
     32 C         3.86884   1.092189   -6.709786 C.3        1 UNL1     0.3143
     33 C         3.114793   -0.221636   -6.671168 C.2        1 UNL1     0.2504
     34 C         5.256835   1.062935   -10.68219 C.3        1 UNL1     -0.0327
     35 O         4.748916   1.101497   -5.579021 O.2        1 UNL1     -0.4528
     36 C         2.959745   3.087592   -2.884141 C.3        1 UNL1     0.0854
     37 C         1.542084   2.839344   -2.239057 C.3        1 UNL1     0.0236
     38 C         1.539177   2.717135   -0.640057 C.3        1 UNL1     0.1131
     39 C         2.545259   1.726731   0.073505 C.3        1 UNL1     0.0200
     40 C         2.792741   0.192339   -0.532162 C.3        1 UNL1     0.0661
     41 C         1.580655   -0.91875   -0.949223 C.3        1 UNL1     0.0091
     42 C         1.546382   -2.20879   -2.253073 C.3        1 UNL1     0.0661
     43 C         1.579781   -2.401569   -10.970361 C.2        1 UNL1     0.2131
     44 O         1.440389   -2.27754   -12.173658 O.2        1 UNL1     -0.2851
     45 O         3.734808   -1.023549   -12.120057 O.3        1 UNL1     -0.5056
     46 O         2.671233   -0.807881   -5.709178 O.2        1 UNL1     -0.2836
     47 C         3.457388   -4.027045   -2.652848 C.3        1 UNL1     -0.0566
     48 O         1.036439   -3.269049   -1.35034 O.3        1 UNL1     -0.3909
     49 C         0.254519   -0.194113   -1.010524 C.3        1 UNL1     -0.0577
     50 O         3.801636   0.20096   -1.521999 O.3        1 UNL1     -0.3910
     51 O         4.059879   2.997882   -2.007165 O.3        1 UNL1     -0.3753
     52 C         0.641479   1.935983   -3.143381 C.3        1 UNL1     -0.0564
     53 O         0.172447   2.834383   -0.031265 O.3        1 UNL1     -0.4608
     54 C         -0.287286   2.108789   1.036485 C.2        1 UNL1     0.3042
     55 O         -0.654012   2.538837   2.129375 O.2        1 UNL1     -0.2512
     56 C         -0.384627   0.634571   0.764605 C.3        1 UNL1     0.0332
     57 C         3.831323   2.573948   0.505289 C.3        1 UNL1     -0.0567
     58 C         2.859796   2.239707   -6.947617 C.3        1 UNL1     0.0210
     59 C         4.966858   1.933412   -2.29029 C.3        1 UNL1     0.0372
     60 C         3.275511   2.228954   -4.058105 C.2        1 UNL1     -0.0208
     61 C         4.387115   1.558963   -4.365014 C.2        1 UNL1     0.0882
     62 H         2.794263   -2.491622   -3.989658 H        1 UNL1     0.0365
     63 H         2.755243   -3.466892   -5.783411 H        1 UNL1     0.0576
     64 H         1.244732   -6.143845   -5.561929 H        1 UNL1     0.0615
     65 H         2.520545   -4.614569   -7.968477 H        1 UNL1     0.0622
     66 H         2.912185   4.116574   -3.267521 H        1 UNL1     0.0645
     67 H         1.009165   3.794662   -2.387127 H        1 UNL1     0.0362
     68 H         1.888812   3.727315   -0.377734 H        1 UNL1     0.0741
     69 H         2.188946   1.531271   1.076123 H        1 UNL1     0.0359
     70 H         3.270186   -0.284303   0.345288 H        1 UNL1     0.0600
     71 H         1.483975   -1.467688   0.008001 H        1 UNL1     0.0348
     72 H         2.607101   -1.965432   -2.095065 H        1 UNL1     0.0602
     73 H         2.486259   2.299481   -4.764756 H        1 UNL1     0.0628
     74 H         5.215931   1.391143   -3.676437 H        1 UNL1     0.1022
     75 H         0.729893   -7.604398   -10.311437 H        1 UNL1     0.0279
     76 H         0.702692   -8.289039   -8.735421 H        1 UNL1     0.0279
     77 H         -0.561247   -7.11954   -9.292221 H        1 UNL1     0.0279
     78 H         -0.372316   -4.933583   -10.218442 H        1 UNL1     0.1553
     79 H         -0.964446   -4.52246   -8.372748 H        1 UNL1     0.1484
     80 H         -1.995513   -1.490625   -6.327174 H        1 UNL1     0.0317
     81 H         -1.565499   -1.387718   -8.028474 H        1 UNL1     0.0317
     82 H         -2.758109   -3.539425   -8.519945 H        1 UNL1     0.0428
     83 H         -3.800762   -2.340197   -7.787529 H        1 UNL1     0.0428
     84 H         -2.272058   -5.362193   -5.211923 H        1 UNL1     0.0428
     85 H         -1.821563   -5.472128   -6.877483 H        1 UNL1     0.0428
     86 H         -0.151745   -4.469436   -5.318264 H        1 UNL1     0.0317
     87 H         -1.189544   -3.195782   -4.867562 H        1 UNL1     0.0317
     88 H         -4.505216   -5.388673   -5.856575 H        1 UNL1     0.0429
     89 H         -5.316524   -3.912425   -6.384501 H        1 UNL1     0.0429
     90 H         -4.441004   -6.290572   -7.930181 H        1 UNL1     0.0308
     91 H         -6.002015   -4.292305   -9.425075 H        1 UNL1     0.0233
     92 H         -6.469069   -5.929835   -8.899857 H        1 UNL1     0.0233
     93 H         -6.717344   -4.559015   -7.839756 H        1 UNL1     0.0233
     94 H         -3.79983   -3.659272   -9.254999 H        1 UNL1     0.0233
     95 H         -2.586715   -4.62084   -8.39589 H        1 UNL1     0.0233
     96 H         -3.422735   -5.303284   -9.809868 H        1 UNL1     0.0233
     97 H         5.871555   0.616932   -11.458355 H        1 UNL1     0.0280
     98 H         4.7251   1.895424   -11.161225 H        1 UNL1     0.0280
     99 H         5.923596   1.468633   -9.903773 H        1 UNL1     0.0280
     100 H         3.239799   -0.45402   -12.682395 H        1 UNL1     0.2922
     101 H         4.340518   -4.191167   -3.26994 H        1 UNL1     0.0236
     102 H         3.131584   -4.939294   -2.154212 H        1 UNL1     0.0236
     103 H         3.803654   -3.369654   -1.837907 H        1 UNL1     0.0236
     104 H         1.682484   -4.002167   -1.361916 H        1 UNL1     0.2098
     105 H         0.286767   0.757958   -1.534292 H        1 UNL1     0.0234
     106 H         -0.57754   -0.797135   -1.3738 H        1 UNL1     0.0234
     107 H         -0.0   0.0   0.0 H        1 UNL1     0.0234
     108 H         3.623208   0.958867   -2.111499 H        1 UNL1     0.2098
     109 H         0.428506   0.963132   -2.678715 H        1 UNL1     0.0234
     110 H         -0.298823   2.417721   -3.43235 H        1 UNL1     0.0234
     111 H         1.128862   1.707831   -4.100643 H        1 UNL1     0.0234
     112 H         0.006769   0.072159   1.617744 H        1 UNL1     0.0342
     113 H         -1.402501   0.328023   0.528373 H        1 UNL1     0.0342
     114 H         0.243171   0.404277   -0.107175 H        1 UNL1     0.0342
     115 H         4.364904   2.10718   1.344699 H        1 UNL1     0.0234
     116 H         4.553615   2.725665   -0.299275 H        1 UNL1     0.0234
     117 H         3.584666   3.561297   0.932188 H        1 UNL1     0.0234
     118 H         3.123947   2.847724   -7.830536 H        1 UNL1     0.0309
     119 H         1.827572   1.889928   -7.049447 H        1 UNL1     0.0309
     120 H         2.853383   2.969823   -6.130919 H        1 UNL1     0.0309
     121 H         5.741819   1.948083   -1.524407 H        1 UNL1     0.0524
     122 H         4.478419   0.945588   -2.249445 H        1 UNL1     0.0524
     123 H         5.40892   2.067776   -3.273458 H        1 UNL1     0.0524
@<TRIPOS>BOND
     1     1     2    1
     2     1    42    1
     3     2     3    2
     4     3     4    1
     5     4     5    2
     6     5     7    1
     7     6    75    1
     8     6    76    1
     9     6    77    1
    10     7     9   am
    11     9    10    1
    12    10    11    2
    13    10    43    1
    14    11    14    1
    15    11    15    1
    16    12    13   ar
    17    12    27   ar
    18    12    43    1
    19    13    14    1
    20    13    30   ar
    21    14    17    2
    22    15    16    1
    23    16    17    1
    24    16    18    1
    25    16    22    1
    26    18    19    1
    27    19    20    1
    28    20    21    1
    29    21    22    1
    30    23    24    1
    31    23    88    1
    32    23    89    1
    33    24    25    1
    34    24    26    1
    35    24    90    1
    36    25    91    1
    37    25    92    1
    38    25    93    1
    39    26    94    1
    40    26    95    1
    41    26    96    1
    42    27    28   ar
    43    28    29   ar
    44    29    30   ar
    45    29    31    1
    46    30    33    1
    47    31    32    1
    48    32    33    1
    49    32    35    1
    50    34    97    1
    51    34    98    1
    52    34    99    1
    53    35    61    1
    54    36    37    1
    55    36    60    1
    56    37    38    1
    57    38    39    1
    58    39    40    1
    59    40    41    1
    60    41    42    1
    61    45   100    1
    62    47   101    1
    63    47   102    1
    64    47   103    1
    65    48   104    1
    66    49   105    1
    67    49   106    1
    68    49   107    1
    69    50   108    1
    70    51    59    1
    71    52   109    1
    72    52   110    1
    73    52   111    1
    74    53    54    1
    75    54    55    2
    76    54    56    1
    77    56   112    1
    78    56   113    1
    79    56   114    1
    80    57   115    1
    81    57   116    1
    82    57   117    1
    83    58   118    1
    84    58   119    1
    85    58   120    1
    86    59   121    1
    87    59   122    1
    88    59   123    1
    89    60    61    2
    90     1    47    1
    91     1    62    1
    92     2    63    1
    93     3    64    1
    94     4    65    1
    95     5     6    1
    96     7     8    2
    97     9    78    1
    98    15    79    1
    99    18    80    1
   100    18    81    1
   101    19    82    1
   102    19    83    1
   103    20    23    1
   104    21    84    1
   105    21    85    1
   106    22    86    1
   107    22    87    1
   108    27    45    1
   109    28    34    1
   110    32    58    1
   111    33    46    2
   112    36    51    1
   113    36    66    1
   114    37    52    1
   115    37    67    1
   116    38    53    1
   117    38    68    1
   118    42    48    1
   119    42    72    1
   120    43    44    2
   121    60    73    1
   122    61    74    1
   123    39    69    1
   124    39    57    1
   125    40    70    1
   126    40    50    1
   127    41    71    1
   128    41    49    1
