@<TRIPOS>MOLECULE
*****
 123 128 0 0 0
SMALL
GASTEIGER

@<TRIPOS>ATOM
     1 C         -1.38021   -4.283607   -2.717219 C.3        1 UNL1     0.0009
     2 C         -0.76065   -5.856824   -3.477596 C.2        1 UNL1     -0.0787
     3 C         -0.170023   -6.564935   -4.593743 C.2        1 UNL1     -0.0649
     4 C         0.323462   -8.183267   -4.655651 C.2        1 UNL1     -0.0542
     5 C         1.137587   -9.123699   -5.333784 C.2        1 UNL1     0.0115
     6 C         2.018409   -9.345407   -6.59407 C.3        1 UNL1     -0.0348
     7 C         1.494231   -10.509665   -4.606534 C.2        1 UNL1     0.2441
     8 O         0.939934   -11.565744   -4.878521 O.2        1 UNL1     -0.2702
     9 N         2.662326   -10.481145   -3.824938 N.am        1 UNL1     -0.2772
     10 C         2.372869   -10.071576   -2.543614 C.2        1 UNL1     0.1049
     11 C         2.292472   -8.767085   -2.353717 C.2        1 UNL1     0.0801
     12 C         0.810229   -10.484681   -0.634469 C.ar        1 UNL1     0.0753
     13 C         0.595872   -9.069812   -0.606077 C.ar        1 UNL1     0.0305
     14 C         1.431262   -8.153696   -1.379321 C.2        1 UNL1     0.0924
     15 N         2.652015   -7.753102   -3.159381 N.pl3        1 UNL1     -0.3170
     16 C         2.517499   -6.530173   -2.413321 C.3        1 UNL1     0.1275
     17 N         1.440777   -6.823842   -1.397372 N.2        1 UNL1     -0.2557
     18 C         3.807131   -6.339915   -1.620633 C.3        1 UNL1     0.0016
     19 C         4.979936   -6.359406   -2.587969 C.3        1 UNL1     0.0026
     20 N         4.800982   -5.291263   -3.56166 N.3        1 UNL1     -0.3018
     21 C         3.557037   -5.353968   -4.331749 C.3        1 UNL1     0.0026
     22 C         2.392223   -5.328475   -3.340561 C.3        1 UNL1     0.0016
     23 C         5.99619   -5.030702   -4.338983 C.3        1 UNL1     0.0012
     24 C         6.558915   -6.338952   -4.916547 C.3        1 UNL1     -0.0339
     25 C         5.724997   -6.83096   -6.110936 C.3        1 UNL1     -0.0615
     26 C         8.019383   -6.156926   -5.291618 C.3        1 UNL1     -0.0615
     27 C         0.09062   -11.340496   0.196109 C.ar        1 UNL1     0.1347
     28 C         -0.837491   -10.896403   1.12101 C.ar        1 UNL1     0.0342
     29 C         -1.067198   -9.504348   1.096867 C.ar        1 UNL1     0.1435
     30 C         -0.379926   -8.638701   0.245085 C.ar        1 UNL1     0.0774
     31 O         -1.86048   -8.905006   2.011469 O.3        1 UNL1     -0.4436
     32 C         -1.47957   -7.521484   1.970892 C.3        1 UNL1     0.3143
     33 C         -0.861849   -7.320657   0.60184 C.2        1 UNL1     0.2504
     34 C         -1.459912   -11.72254   2.211968 C.3        1 UNL1     -0.0327
     35 O         -2.684599   -6.746788   2.002584 O.2        1 UNL1     -0.4528
     36 C         -1.782947   -3.490185   3.731644 C.3        1 UNL1     0.0854
     37 C         -0.679789   -2.430433   3.347597 C.3        1 UNL1     0.0236
     38 C         -1.218536   -0.931617   3.16039 C.3        1 UNL1     0.1131
     39 C         -2.462582   -0.655799   2.223083 C.3        1 UNL1     0.0200
     40 C         -2.584923   -1.406708   0.738628 C.3        1 UNL1     0.0661
     41 C         -1.371985   -1.470622   -0.445562 C.3        1 UNL1     0.0091
     42 C         -0.981427   -2.770181   -1.680072 C.3        1 UNL1     0.0661
     43 C         1.887716   -11.00242   -1.513803 C.2        1 UNL1     0.2131
     44 O         2.428235   -12.081494   -1.352014 O.2        1 UNL1     -0.2851
     45 O         0.327177   -12.708154   0.07367 O.3        1 UNL1     -0.5056
     46 O         -0.801082   -6.306021   -0.055941 O.2        1 UNL1     -0.2836
     47 C         -2.754336   -3.894992   -3.3261 C.3        1 UNL1     -0.0566
     48 O         -0.866806   -1.819947   -2.812783 O.3        1 UNL1     -0.3909
     49 C         -0.060689   -1.043623   0.175461 C.3        1 UNL1     -0.0577
     50 O         -3.202757   -2.671512   0.8662 O.3        1 UNL1     -0.3910
     51 O         -3.116121   -3.033542   3.6922 O.3        1 UNL1     -0.3753
     52 C         0.415369   -3.042697   2.414478 C.3        1 UNL1     -0.0564
     53 O         -0.129278   0.100678   3.145873 O.3        1 UNL1     -0.4608
     54 C         -0.295568   1.435769   3.406274 C.2        1 UNL1     0.3042
     55 O         -0.738643   1.946713   4.434116 O.2        1 UNL1     -0.2512
     56 C         0.185499   2.329055   2.298426 C.3        1 UNL1     0.0332
     57 C         -3.765826   -0.619451   3.149585 C.3        1 UNL1     -0.0567
     58 C         -0.382254   -7.338224   3.045063 C.3        1 UNL1     0.0210
     59 C         -4.023135   -3.759576   4.520492 C.3        1 UNL1     0.0372
     60 C         -1.739211   -4.755276   2.948834 C.2        1 UNL1     -0.0208
     61 C         -2.722431   -5.454622   2.380557 C.2        1 UNL1     0.0882
     62 H         -1.592055   -4.835887   -1.793736 H        1 UNL1     0.0365
     63 H         -1.014526   -6.574931   -2.695076 H        1 UNL1     0.0576
     64 H         0.172051   -6.039823   -5.488366 H        1 UNL1     0.0615
     65 H         -0.132535   -8.628929   -3.76743 H        1 UNL1     0.0622
     66 H         -1.548523   -3.769219   4.768578 H        1 UNL1     0.0645
     67 H         -0.071833   -2.332302   4.263741 H        1 UNL1     0.0362
     68 H         -1.574563   -0.735026   4.18319 H        1 UNL1     0.0741
     69 H         -2.474056   0.393445   1.959712 H        1 UNL1     0.0359
     70 H         -3.355693   -0.768851   0.265223 H        1 UNL1     0.0600
     71 H         -1.633684   -0.572654   -1.038963 H        1 UNL1     0.0348
     72 H         -2.017403   -2.956096   -1.361472 H        1 UNL1     0.0602
     73 H         -0.756515   -5.155456   2.986438 H        1 UNL1     0.0628
     74 H         -3.74213   -5.090797   2.249857 H        1 UNL1     0.1022
     75 H         2.155582   -10.436288   -6.789511 H        1 UNL1     0.0279
     76 H         1.613565   -8.987397   -7.537998 H        1 UNL1     0.0279
     77 H         3.058538   -9.018715   -6.448791 H        1 UNL1     0.0279
     78 H         3.32115   -9.812615   -4.218759 H        1 UNL1     0.1553
     79 H         3.28618   -7.852512   -3.930668 H        1 UNL1     0.1484
     80 H         3.754248   -5.390407   -1.074369 H        1 UNL1     0.0317
     81 H         3.924256   -7.127883   -0.868942 H        1 UNL1     0.0317
     82 H         5.08142   -7.335321   -3.085165 H        1 UNL1     0.0428
     83 H         5.889326   -6.223979   -2.001693 H        1 UNL1     0.0428
     84 H         3.409992   -4.498214   -4.997987 H        1 UNL1     0.0428
     85 H         3.536051   -6.222508   -5.004441 H        1 UNL1     0.0428
     86 H         1.504507   -5.241241   -3.939174 H        1 UNL1     0.0317
     87 H         2.406413   -4.39199   -2.769692 H        1 UNL1     0.0317
     88 H         5.724374   -4.369303   -5.172027 H        1 UNL1     0.0429
     89 H         6.752284   -4.503362   -3.743159 H        1 UNL1     0.0429
     90 H         6.543548   -7.111102   -4.13824 H        1 UNL1     0.0308
     91 H         5.319418   -7.830532   -5.928006 H        1 UNL1     0.0233
     92 H         4.902304   -6.142386   -6.31746 H        1 UNL1     0.0233
     93 H         6.313175   -6.890459   -7.034701 H        1 UNL1     0.0233
     94 H         8.664439   -6.49537   -4.473575 H        1 UNL1     0.0233
     95 H         8.255246   -6.754856   -6.176384 H        1 UNL1     0.0233
     96 H         8.249637   -5.108794   -5.502263 H        1 UNL1     0.0233
     97 H         -2.263004   -12.351259   1.839159 H        1 UNL1     0.0280
     98 H         -0.736752   -12.403997   2.678779 H        1 UNL1     0.0280
     99 H         -1.873333   -11.05779   2.988039 H        1 UNL1     0.0280
     100 H         1.182294   -12.984165   0.353341 H        1 UNL1     0.2922
     101 H         -2.602469   -3.325515   -4.242772 H        1 UNL1     0.0236
     102 H         -3.40253   -3.373016   -2.622986 H        1 UNL1     0.0236
     103 H         -3.333755   -4.779631   -3.638958 H        1 UNL1     0.0236
     104 H         -0.761022   -0.924182   -2.436771 H        1 UNL1     0.2098
     105 H         0.001453   -1.204721   1.248772 H        1 UNL1     0.0234
     106 H         0.827012   -1.439191   -0.317935 H        1 UNL1     0.0234
     107 H         0.0   0.0   0.0 H        1 UNL1     0.0234
     108 H         -3.045779   -3.156401   0.033128 H        1 UNL1     0.2098
     109 H         -0.014901   -3.687655   1.635628 H        1 UNL1     0.0234
     110 H         1.057373   -2.286248   1.950411 H        1 UNL1     0.0234
     111 H         1.11457   -3.678331   2.973971 H        1 UNL1     0.0234
     112 H         -0.515497   3.157314   2.157231 H        1 UNL1     0.0342
     113 H         1.194386   2.697397   2.47819 H        1 UNL1     0.0342
     114 H         0.205759   1.742898   1.369354 H        1 UNL1     0.0342
     115 H         -4.517126   0.08676   2.770108 H        1 UNL1     0.0234
     116 H         -4.255173   -1.588532   3.265653 H        1 UNL1     0.0234
     117 H         -3.578078   -0.209901   4.157037 H        1 UNL1     0.0234
     118 H         -0.800041   -7.008993   4.012568 H        1 UNL1     0.0309
     119 H         0.219373   -8.239004   3.202675 H        1 UNL1     0.0309
     120 H         0.325471   -6.54145   2.791324 H        1 UNL1     0.0309
     121 H         -3.75074   -3.564819   5.557423 H        1 UNL1     0.0524
     122 H         -5.06739   -3.432354   4.384504 H        1 UNL1     0.0524
     123 H         -3.956466   -4.822987   4.308817 H        1 UNL1     0.0524
@<TRIPOS>BOND
     1     1     2    1
     2     1    42    1
     3     2     3    2
     4     3     4    1
     5     4     5    2
     6     5     7    1
     7     6    75    1
     8     6    76    1
     9     6    77    1
    10     7     9   am
    11     9    10    1
    12    10    11    2
    13    10    43    1
    14    11    14    1
    15    11    15    1
    16    12    13   ar
    17    12    27   ar
    18    12    43    1
    19    13    14    1
    20    13    30   ar
    21    14    17    2
    22    15    16    1
    23    16    17    1
    24    16    18    1
    25    16    22    1
    26    18    19    1
    27    19    20    1
    28    20    21    1
    29    21    22    1
    30    23    24    1
    31    23    88    1
    32    23    89    1
    33    24    25    1
    34    24    26    1
    35    24    90    1
    36    25    91    1
    37    25    92    1
    38    25    93    1
    39    26    94    1
    40    26    95    1
    41    26    96    1
    42    27    28   ar
    43    28    29   ar
    44    29    30   ar
    45    29    31    1
    46    30    33    1
    47    31    32    1
    48    32    33    1
    49    32    35    1
    50    34    97    1
    51    34    98    1
    52    34    99    1
    53    35    61    1
    54    36    37    1
    55    36    60    1
    56    37    38    1
    57    38    39    1
    58    39    40    1
    59    40    41    1
    60    41    42    1
    61    45   100    1
    62    47   101    1
    63    47   102    1
    64    47   103    1
    65    48   104    1
    66    49   105    1
    67    49   106    1
    68    49   107    1
    69    50   108    1
    70    51    59    1
    71    52   109    1
    72    52   110    1
    73    52   111    1
    74    53    54    1
    75    54    55    2
    76    54    56    1
    77    56   112    1
    78    56   113    1
    79    56   114    1
    80    57   115    1
    81    57   116    1
    82    57   117    1
    83    58   118    1
    84    58   119    1
    85    58   120    1
    86    59   121    1
    87    59   122    1
    88    59   123    1
    89    60    61    2
    90     1    47    1
    91     1    62    1
    92     2    63    1
    93     3    64    1
    94     4    65    1
    95     5     6    1
    96     7     8    2
    97     9    78    1
    98    15    79    1
    99    18    80    1
   100    18    81    1
   101    19    82    1
   102    19    83    1
   103    20    23    1
   104    21    84    1
   105    21    85    1
   106    22    86    1
   107    22    87    1
   108    27    45    1
   109    28    34    1
   110    32    58    1
   111    33    46    2
   112    36    51    1
   113    36    66    1
   114    37    52    1
   115    37    67    1
   116    38    53    1
   117    38    68    1
   118    42    48    1
   119    42    72    1
   120    43    44    2
   121    60    73    1
   122    61    74    1
   123    39    69    1
   124    39    57    1
   125    40    70    1
   126    40    50    1
   127    41    71    1
   128    41    49    1
