@<TRIPOS>MOLECULE
*****
 123 128 0 0 0
SMALL
GASTEIGER

@<TRIPOS>ATOM
     1 C         -4.513722   1.371159   2.319889 C.3        1 UNL1     0.0009
     2 C         -5.854082   2.645096   2.187387 C.2        1 UNL1     -0.0787
     3 C         -6.571011   3.775963   2.738023 C.2        1 UNL1     -0.0649
     4 C         -7.785066   4.697404   2.000885 C.2        1 UNL1     -0.0542
     5 C         -8.476537   5.933782   2.018605 C.2        1 UNL1     0.0115
     6 C         -8.702103   7.235807   2.835412 C.3        1 UNL1     -0.0348
     7 C         -9.301592   6.381189   0.716261 C.2        1 UNL1     0.2441
     8 O         -10.51877   6.289093   0.635509 O.2        1 UNL1     -0.2702
     9 N         -8.5644   7.125688   -0.220981 N.am        1 UNL1     -0.2772
     10 C         -7.932108   6.287135   -1.110001 C.2        1 UNL1     0.1049
     11 C         -6.782242   5.775154   -0.710118 C.2        1 UNL1     0.0801
     12 C         -8.327538   4.325624   -2.611148 C.ar        1 UNL1     0.0753
     13 C         -7.186554   3.721961   -1.992799 C.ar        1 UNL1     0.0305
     14 C         -6.299821   4.482673   -1.115261 C.2        1 UNL1     0.0924
     15 N         -6.013085   6.097587   0.343903 N.pl3        1 UNL1     -0.3170
     16 C         -4.783303   5.358983   0.232754 C.3        1 UNL1     0.1275
     17 N         -5.156166   4.118705   -0.542105 N.2        1 UNL1     -0.2557
     18 C         -3.854377   6.161191   -0.673481 C.3        1 UNL1     0.0016
     19 C         -3.697468   7.558306   -0.094658 C.3        1 UNL1     0.0026
     20 N         -3.150724   7.448552   1.250724 N.3        1 UNL1     -0.3018
     21 C         -3.944381   6.642326   2.180497 C.3        1 UNL1     0.0026
     22 C         -4.085523   5.241933   1.581438 C.3        1 UNL1     0.0016
     23 C         -2.684817   8.716775   1.775306 C.3        1 UNL1     0.0012
     24 C         -1.415034   9.170734   1.038196 C.3        1 UNL1     -0.0339
     25 C         -1.707542   10.337322   0.080298 C.3        1 UNL1     -0.0615
     26 C         -0.331032   9.528437   2.040077 C.3        1 UNL1     -0.0615
     27 C         -9.097926   3.629635   -3.539707 C.ar        1 UNL1     0.1347
     28 C         -8.803597   2.34401   -3.957542 C.ar        1 UNL1     0.0342
     29 C         -7.704697   1.752297   -3.299165 C.ar        1 UNL1     0.1435
     30 C         -6.945435   2.424491   -2.340574 C.ar        1 UNL1     0.0774
     31 O         -7.225479   0.545784   -3.672907 O.3        1 UNL1     -0.4436
     32 C         -5.892833   0.504188   -3.140744 C.3        1 UNL1     0.3143
     33 C         -5.894178   1.491866   -1.991525 C.2        1 UNL1     0.2504
     34 C         -9.428722   1.631285   -5.124308 C.3        1 UNL1     -0.0327
     35 O         -5.701611   -0.79714   -2.57221 O.2        1 UNL1     -0.4528
     36 C         -1.998508   -1.552782   -2.924519 C.3        1 UNL1     0.0854
     37 C         -0.759754   -0.7367   -2.388773 C.3        1 UNL1     0.0236
     38 C         0.25608   -1.573825   -1.472778 C.3        1 UNL1     0.1131
     39 C         -0.297757   -2.415917   -0.253591 C.3        1 UNL1     0.0200
     40 C         -1.452881   -1.771704   0.762832 C.3        1 UNL1     0.0661
     41 C         -1.385113   -0.24762   1.504575 C.3        1 UNL1     0.0091
     42 C         -2.728715   0.917252   1.955362 C.3        1 UNL1     0.0661
     43 C         -8.610984   5.74822   -2.297878 C.2        1 UNL1     0.2131
     44 O         -9.272441   6.47653   -3.015356 O.2        1 UNL1     -0.2851
     45 O         -10.218379   4.273674   -4.060512 O.3        1 UNL1     -0.5056
     46 O         -5.199183   1.495376   -1.000151 O.2        1 UNL1     -0.2836
     47 C         -4.92129   0.262321   3.327037 C.3        1 UNL1     -0.0566
     48 O         -2.214342   1.159264   3.325021 O.3        1 UNL1     -0.3909
     49 C         -0.296634   0.568649   0.843959 C.3        1 UNL1     -0.0577
     50 O         -2.751893   -2.005704   0.257325 O.3        1 UNL1     -0.3910
     51 O         -2.154885   -2.851345   -2.398484 O.3        1 UNL1     -0.3753
     52 C         -1.134123   0.74803   -2.071955 C.3        1 UNL1     -0.0564
     53 O         1.579852   -0.896366   -1.270281 O.3        1 UNL1     -0.4608
     54 C         2.311039   -0.91011   -0.111356 C.2        1 UNL1     0.3042
     55 O         3.512113   -0.675924   0.016777 O.2        1 UNL1     -0.2512
     56 C         1.490305   -1.194903   1.114205 C.3        1 UNL1     0.0332
     57 C         -0.505363   -3.918738   -0.760151 C.3        1 UNL1     -0.0567
     58 C         -4.960426   1.035612   -4.254178 C.3        1 UNL1     0.0210
     59 C         -1.85336   -3.907373   -3.309392 C.3        1 UNL1     0.0372
     60 C         -3.312568   -0.869362   -2.778424 C.2        1 UNL1     -0.0208
     61 C         -4.48704   -1.336106   -2.352387 C.2        1 UNL1     0.0882
     62 H         -4.789235   1.005428   1.323373 H        1 UNL1     0.0365
     63 H         -6.332958   2.340492   1.254454 H        1 UNL1     0.0576
     64 H         -6.257469   4.254497   3.668509 H        1 UNL1     0.0615
     65 H         -8.078086   4.097485   1.135022 H        1 UNL1     0.0622
     66 H         -1.823673   -1.641638   -4.005992 H        1 UNL1     0.0645
     67 H         -0.146827   -0.557808   -3.28926 H        1 UNL1     0.0362
     68 H         0.598152   -2.316916   -2.209204 H        1 UNL1     0.0741
     69 H         0.519886   -2.629506   0.42187 H        1 UNL1     0.0359
     70 H         -1.360635   -2.465457   1.620303 H        1 UNL1     0.0600
     71 H         -0.900701   -0.520311   2.462668 H        1 UNL1     0.0348
     72 H         -3.207987   -0.064487   1.829657 H        1 UNL1     0.0602
     73 H         -3.249428   0.102845   -3.200415 H        1 UNL1     0.0628
     74 H         -4.625199   -2.296993   -1.855551 H        1 UNL1     0.1022
     75 H         -8.897149   6.996498   3.908596 H        1 UNL1     0.0279
     76 H         -7.860069   7.921505   2.897592 H        1 UNL1     0.0279
     77 H         -9.629944   7.756879   2.557387 H        1 UNL1     0.0279
     78 H         -7.844767   7.662603   0.258526 H        1 UNL1     0.1553
     79 H         -6.081544   6.968459   0.837694 H        1 UNL1     0.1484
     80 H         -2.888965   5.645437   -0.742352 H        1 UNL1     0.0317
     81 H         -4.253384   6.216825   -1.691985 H        1 UNL1     0.0317
     82 H         -4.650857   8.106894   -0.090936 H        1 UNL1     0.0428
     83 H         -3.032897   8.113715   -0.757165 H        1 UNL1     0.0428
     84 H         -3.472628   6.509817   3.15912 H        1 UNL1     0.0428
     85 H         -4.908933   7.115358   2.411142 H        1 UNL1     0.0428
     86 H         -4.553394   4.64678   2.343592 H        1 UNL1     0.0317
     87 H         -3.096677   4.780465   1.470404 H        1 UNL1     0.0317
     88 H         -3.471343   9.464578   1.609593 H        1 UNL1     0.0429
     89 H         -2.515838   8.662373   2.858477 H        1 UNL1     0.0429
     90 H         -1.01865   8.331074   0.455046 H        1 UNL1     0.0308
     91 H         -1.5199   10.054496   -0.959848 H        1 UNL1     0.0233
     92 H         -2.743706   10.668894   0.180464 H        1 UNL1     0.0233
     93 H         -1.084056   11.215199   0.288701 H        1 UNL1     0.0233
     94 H         0.331653   8.671361   2.201654 H        1 UNL1     0.0233
     95 H         0.274026   10.354848   1.656786 H        1 UNL1     0.0233
     96 H         -0.758604   9.821049   3.00316 H        1 UNL1     0.0233
     97 H         -8.689932   1.32932   -5.860676 H        1 UNL1     0.0280
     98 H         -9.943013   0.710492   -4.819509 H        1 UNL1     0.0280
     99 H         -10.155686   2.297368   -5.617208 H        1 UNL1     0.0280
     100 H         -10.779558   4.666319   -3.41512 H        1 UNL1     0.2922
     101 H         -5.21335   -0.637084   2.785347 H        1 UNL1     0.0236
     102 H         -5.688695   0.583328   4.030619 H        1 UNL1     0.0236
     103 H         -4.075017   -0.054213   3.95935 H        1 UNL1     0.0236
     104 H         -1.348307   0.71248   3.398076 H        1 UNL1     0.2098
     105 H         -0.619086   1.544898   0.490726 H        1 UNL1     0.0234
     106 H         0.619965   0.661448   1.426335 H        1 UNL1     0.0234
     107 H         0.0   0.0   0.0 H        1 UNL1     0.0234
     108 H         -3.041956   -2.875301   0.594123 H        1 UNL1     0.2098
     109 H         -1.493383   1.285196   -2.960829 H        1 UNL1     0.0234
     110 H         -1.867875   0.843966   -1.264399 H        1 UNL1     0.0234
     111 H         -0.266149   1.316282   -1.711875 H        1 UNL1     0.0234
     112 H         2.126923   -1.164907   2.003679 H        1 UNL1     0.0342
     113 H         0.649455   -0.509923   1.212274 H        1 UNL1     0.0342
     114 H         1.082954   -2.211467   1.025735 H        1 UNL1     0.0342
     115 H         -0.297904   -4.649595   0.033572 H        1 UNL1     0.0234
     116 H         -1.507437   -4.124117   -1.14188 H        1 UNL1     0.0234
     117 H         0.222356   -4.227948   -1.530056 H        1 UNL1     0.0234
     118 H         -4.322581   0.239218   -4.67598 H        1 UNL1     0.0309
     119 H         -5.500951   1.53002   -5.067563 H        1 UNL1     0.0309
     120 H         -4.23631   1.768496   -3.881828 H        1 UNL1     0.0309
     121 H         -1.952803   -3.510186   -4.319199 H        1 UNL1     0.0524
     122 H         -0.819471   -4.274166   -3.197259 H        1 UNL1     0.0524
     123 H         -2.539508   -4.736856   -3.163611 H        1 UNL1     0.0524
@<TRIPOS>BOND
     1     1     2    1
     2     1    42    1
     3     2     3    2
     4     3     4    1
     5     4     5    2
     6     5     7    1
     7     6    75    1
     8     6    76    1
     9     6    77    1
    10     7     9   am
    11     9    10    1
    12    10    11    2
    13    10    43    1
    14    11    14    1
    15    11    15    1
    16    12    13   ar
    17    12    27   ar
    18    12    43    1
    19    13    14    1
    20    13    30   ar
    21    14    17    2
    22    15    16    1
    23    16    17    1
    24    16    18    1
    25    16    22    1
    26    18    19    1
    27    19    20    1
    28    20    21    1
    29    21    22    1
    30    23    24    1
    31    23    88    1
    32    23    89    1
    33    24    25    1
    34    24    26    1
    35    24    90    1
    36    25    91    1
    37    25    92    1
    38    25    93    1
    39    26    94    1
    40    26    95    1
    41    26    96    1
    42    27    28   ar
    43    28    29   ar
    44    29    30   ar
    45    29    31    1
    46    30    33    1
    47    31    32    1
    48    32    33    1
    49    32    35    1
    50    34    97    1
    51    34    98    1
    52    34    99    1
    53    35    61    1
    54    36    37    1
    55    36    60    1
    56    37    38    1
    57    38    39    1
    58    39    40    1
    59    40    41    1
    60    41    42    1
    61    45   100    1
    62    47   101    1
    63    47   102    1
    64    47   103    1
    65    48   104    1
    66    49   105    1
    67    49   106    1
    68    49   107    1
    69    50   108    1
    70    51    59    1
    71    52   109    1
    72    52   110    1
    73    52   111    1
    74    53    54    1
    75    54    55    2
    76    54    56    1
    77    56   112    1
    78    56   113    1
    79    56   114    1
    80    57   115    1
    81    57   116    1
    82    57   117    1
    83    58   118    1
    84    58   119    1
    85    58   120    1
    86    59   121    1
    87    59   122    1
    88    59   123    1
    89    60    61    2
    90     1    47    1
    91     1    62    1
    92     2    63    1
    93     3    64    1
    94     4    65    1
    95     5     6    1
    96     7     8    2
    97     9    78    1
    98    15    79    1
    99    18    80    1
   100    18    81    1
   101    19    82    1
   102    19    83    1
   103    20    23    1
   104    21    84    1
   105    21    85    1
   106    22    86    1
   107    22    87    1
   108    27    45    1
   109    28    34    1
   110    32    58    1
   111    33    46    2
   112    36    51    1
   113    36    66    1
   114    37    52    1
   115    37    67    1
   116    38    53    1
   117    38    68    1
   118    42    48    1
   119    42    72    1
   120    43    44    2
   121    60    73    1
   122    61    74    1
   123    39    69    1
   124    39    57    1
   125    40    70    1
   126    40    50    1
   127    41    71    1
   128    41    49    1
