@<TRIPOS>MOLECULE
*****
 123 128 0 0 0
SMALL
GASTEIGER

@<TRIPOS>ATOM
     1 C         -1.039269   -2.994311   -3.25108 C.3        1 UNL1     0.0009
     2 C         -0.029898   -4.365277   -3.985013 C.2        1 UNL1     -0.0787
     3 C         0.678789   -4.9404   -5.108865 C.2        1 UNL1     -0.0649
     4 C         1.620039   -6.347411   -5.135797 C.2        1 UNL1     -0.0542
     5 C         2.634537   -7.052525   -5.829112 C.2        1 UNL1     0.0115
     6 C         3.469829   -7.088067   -7.138442 C.3        1 UNL1     -0.0348
     7 C         3.421242   -8.227988   -5.069921 C.2        1 UNL1     0.2441
     8 O         3.186008   -9.414049   -5.255526 O.2        1 UNL1     -0.2702
     9 N         4.571601   -7.814212   -4.375936 N.am        1 UNL1     -0.2772
     10 C         4.247007   -7.426871   -3.096121 C.2        1 UNL1     0.1049
     11 C         3.799086   -6.192201   -2.957632 C.2        1 UNL1     0.0801
     12 C         2.982906   -8.154496   -1.063895 C.ar        1 UNL1     0.0753
     13 C         2.365782   -6.863196   -1.081534 C.ar        1 UNL1     0.0305
     14 C         2.851909   -5.79465   -1.951557 C.2        1 UNL1     0.0924
     15 N         3.800525   -5.169815   -3.83013 N.pl3        1 UNL1     -0.3170
     16 C         3.355886   -3.994061   -3.130021 C.3        1 UNL1     0.1275
     17 N         2.470775   -4.522704   -2.027824 N.2        1 UNL1     -0.2557
     18 C         4.575546   -3.389944   -2.440692 C.3        1 UNL1     0.0016
     19 C         5.646744   -3.129624   -3.487763 C.3        1 UNL1     0.0026
     20 N         5.108907   -2.221717   -4.491488 N.3        1 UNL1     -0.3018
     21 C         3.89679   -2.689369   -5.167094 C.3        1 UNL1     0.0026
     22 C         2.832796   -2.940159   -4.097086 C.3        1 UNL1     0.0016
     23 C         6.130142   -1.675565   -5.362947 C.3        1 UNL1     0.0012
     24 C         6.053479   -2.323246   -6.754489 C.3        1 UNL1     -0.0339
     25 C         4.60153   -2.418213   -7.251362 C.3        1 UNL1     -0.0615
     26 C         6.930337   -1.561021   -7.732709 C.3        1 UNL1     -0.0615
     27 C         2.592855   -9.128383   -0.14764 C.ar        1 UNL1     0.1347
     28 C         1.628598   -8.914981   0.821236 C.ar        1 UNL1     0.0342
     29 C         1.000564   -7.653187   0.753333 C.ar        1 UNL1     0.1435
     30 C         1.355684   -6.680583   -0.182162 C.ar        1 UNL1     0.0774
     31 O         0.119   -7.253133   1.695568 O.3        1 UNL1     -0.4436
     32 C         0.075427   -5.823908   1.567939 C.3        1 UNL1     0.3143
     33 C         0.529829   -5.538702   0.150762 C.2        1 UNL1     0.2504
     34 C         1.337183   -9.816187   1.988713 C.3        1 UNL1     -0.0327
     35 O         -1.299829   -5.430442   1.652246 O.2        1 UNL1     -0.4528
     36 C         -1.295641   -1.951132   3.169637 C.3        1 UNL1     0.0854
     37 C         -0.574202   -0.643689   2.662052 C.3        1 UNL1     0.0236
     38 C         -1.537596   0.620547   2.44916 C.3        1 UNL1     0.1131
     39 C         -2.858226   0.465817   1.592268 C.3        1 UNL1     0.0200
     40 C         -2.838176   -0.37934   0.154302 C.3        1 UNL1     0.0661
     41 C         -1.727782   -0.163356   -1.109813 C.3        1 UNL1     0.0091
     42 C         -1.043591   -1.368687   -2.311671 C.3        1 UNL1     0.0661
     43 C         4.113853   -8.392204   -1.994869 C.2        1 UNL1     0.2131
     44 O         4.954673   -9.25656   -1.825613 O.2        1 UNL1     -0.2851
     45 O         3.2121   -10.374023   -0.227352 O.3        1 UNL1     -0.5056
     46 O         0.254134   -4.592894   -0.553008 O.2        1 UNL1     -0.2836
     47 C         -2.498736   -3.058456   -3.776269 C.3        1 UNL1     -0.0566
     48 O         -1.275562   -0.498408   -3.489772 O.3        1 UNL1     -0.3909
     49 C         -0.566319   0.662473   -0.60335 C.3        1 UNL1     -0.0577
     50 O         -3.05065   -1.758266   0.380443 O.3        1 UNL1     -0.3910
     51 O         -2.704111   -1.902975   3.206008 O.3        1 UNL1     -0.3753
     52 C         0.598274   -0.96993   1.680311 C.3        1 UNL1     -0.0564
     53 O         -0.800744   1.920763   2.311994 O.3        1 UNL1     -0.4608
     54 C         0.122468   2.213039   1.342363 C.2        1 UNL1     0.3042
     55 O         0.651826   3.300985   1.118776 O.2        1 UNL1     -0.2512
     56 C         0.537375   1.020773   0.528074 C.3        1 UNL1     0.0332
     57 C         -4.061154   0.181328   2.607259 C.3        1 UNL1     -0.0567
     58 C         1.12928   -5.264562   2.551837 C.3        1 UNL1     0.0210
     59 C         -3.34757   -3.176484   3.206908 C.3        1 UNL1     0.0372
     60 C         -0.927371   -3.195707   2.441233 C.2        1 UNL1     -0.0208
     61 C         -1.693004   -4.183518   1.975637 C.2        1 UNL1     0.0882
     62 H         -1.028264   -3.525605   -2.291748 H        1 UNL1     0.0365
     63 H         -0.018357   -5.075913   -3.155958 H        1 UNL1     0.0576
     64 H         0.801662   -4.395594   -6.047585 H        1 UNL1     0.0615
     65 H         1.364808   -6.849672   -4.198741 H        1 UNL1     0.0622
     66 H         -0.932269   -2.085274   4.198234 H        1 UNL1     0.0645
     67 H         0.028604   -0.317041   3.527203 H        1 UNL1     0.0362
     68 H         -1.877846   0.769085   3.48535 H        1 UNL1     0.0741
     69 H         -3.190975   1.448362   1.285199 H        1 UNL1     0.0359
     70 H         -3.787067   -0.022456   -0.289882 H        1 UNL1     0.0600
     71 H         -2.273554   0.581754   -1.721287 H        1 UNL1     0.0348
     72 H         -1.960301   -1.826059   -1.911961 H        1 UNL1     0.0602
     73 H         0.129912   -3.29141   2.425677 H        1 UNL1     0.0628
     74 H         -2.780171   -4.139044   1.902648 H        1 UNL1     0.1022
     75 H         3.558269   -8.134293   -7.51874 H        1 UNL1     0.0279
     76 H         3.052813   -6.562159   -7.994355 H        1 UNL1     0.0279
     77 H         4.525736   -6.826275   -6.976496 H        1 UNL1     0.0279
     78 H         4.982841   -7.009597   -4.844503 H        1 UNL1     0.1553
     79 H         4.391891   -5.12941   -4.639813 H        1 UNL1     0.1484
     80 H         4.277691   -2.464207   -1.933682 H        1 UNL1     0.0317
     81 H         4.959961   -4.061932   -1.665895 H        1 UNL1     0.0317
     82 H         6.001462   -4.063472   -3.948214 H        1 UNL1     0.0428
     83 H         6.507948   -2.700718   -2.974522 H        1 UNL1     0.0428
     84 H         3.468749   -1.95596   -5.857531 H        1 UNL1     0.0428
     85 H         4.093371   -3.567004   -5.798307 H        1 UNL1     0.0428
     86 H         1.926426   -3.150872   -4.633818 H        1 UNL1     0.0317
     87 H         2.604154   -2.00593   -3.569796 H        1 UNL1     0.0317
     88 H         5.948492   -0.597997   -5.468512 H        1 UNL1     0.0429
     89 H         7.130582   -1.791839   -4.926627 H        1 UNL1     0.0429
     90 H         6.471866   -3.335434   -6.703104 H        1 UNL1     0.0308
     91 H         4.287605   -3.460084   -7.365635 H        1 UNL1     0.0233
     92 H         3.922885   -1.912917   -6.560185 H        1 UNL1     0.0233
     93 H         4.461152   -1.934959   -8.225834 H        1 UNL1     0.0233
     94 H         6.511703   -0.566128   -7.919173 H        1 UNL1     0.0233
     95 H         7.932398   -1.432081   -7.314127 H        1 UNL1     0.0233
     96 H         7.011915   -2.086285   -8.688434 H        1 UNL1     0.0233
     97 H         2.242377   -10.114019   2.509434 H        1 UNL1     0.0280
     98 H         0.704681   -9.327259   2.741141 H        1 UNL1     0.0280
     99 H         0.82722   -10.726713   1.633782 H        1 UNL1     0.0280
     100 H         2.843664   -11.031219   0.336537 H        1 UNL1     0.2922
     101 H         -3.160547   -2.533022   -3.088096 H        1 UNL1     0.0236
     102 H         -2.838503   -4.074345   -3.975042 H        1 UNL1     0.0236
     103 H         -2.61684   -2.529645   -4.736791 H        1 UNL1     0.0236
     104 H         -0.401546   -0.244497   -3.845575 H        1 UNL1     0.2098
     105 H         0.087834   1.043458   -1.383571 H        1 UNL1     0.0234
     106 H         -0.841871   1.463105   0.082935 H        1 UNL1     0.0234
     107 H         0.0   0.0   0.0 H        1 UNL1     0.0234
     108 H         -2.172335   -2.18023   0.445843 H        1 UNL1     0.2098
     109 H         1.085724   -0.062109   1.298257 H        1 UNL1     0.0234
     110 H         1.351895   -1.634864   2.115813 H        1 UNL1     0.0234
     111 H         0.244589   -1.512942   0.793749 H        1 UNL1     0.0234
     112 H         1.285278   1.318372   -0.213156 H        1 UNL1     0.0342
     113 H         0.906847   0.20774   1.151221 H        1 UNL1     0.0342
     114 H         -0.344526   0.651127   -0.013015 H        1 UNL1     0.0342
     115 H         -3.729068   -0.392079   3.483678 H        1 UNL1     0.0234
     116 H         -4.555981   1.08317   2.973149 H        1 UNL1     0.0234
     117 H         -4.835342   -0.488569   2.195176 H        1 UNL1     0.0234
     118 H         2.118368   -5.734629   2.411308 H        1 UNL1     0.0309
     119 H         1.237935   -4.176965   2.492432 H        1 UNL1     0.0309
     120 H         0.889327   -5.488695   3.596965 H        1 UNL1     0.0309
     121 H         -2.810306   -3.817824   2.508778 H        1 UNL1     0.0524
     122 H         -3.313826   -3.661573   4.196649 H        1 UNL1     0.0524
     123 H         -4.384488   -3.073883   2.899712 H        1 UNL1     0.0524
@<TRIPOS>BOND
     1     1     2    1
     2     1    42    1
     3     2     3    2
     4     3     4    1
     5     4     5    2
     6     5     7    1
     7     6    75    1
     8     6    76    1
     9     6    77    1
    10     7     9   am
    11     9    10    1
    12    10    11    2
    13    10    43    1
    14    11    14    1
    15    11    15    1
    16    12    13   ar
    17    12    27   ar
    18    12    43    1
    19    13    14    1
    20    13    30   ar
    21    14    17    2
    22    15    16    1
    23    16    17    1
    24    16    18    1
    25    16    22    1
    26    18    19    1
    27    19    20    1
    28    20    21    1
    29    21    22    1
    30    23    24    1
    31    23    88    1
    32    23    89    1
    33    24    25    1
    34    24    26    1
    35    24    90    1
    36    25    91    1
    37    25    92    1
    38    25    93    1
    39    26    94    1
    40    26    95    1
    41    26    96    1
    42    27    28   ar
    43    28    29   ar
    44    29    30   ar
    45    29    31    1
    46    30    33    1
    47    31    32    1
    48    32    33    1
    49    32    35    1
    50    34    97    1
    51    34    98    1
    52    34    99    1
    53    35    61    1
    54    36    37    1
    55    36    60    1
    56    37    38    1
    57    38    39    1
    58    39    40    1
    59    40    41    1
    60    41    42    1
    61    45   100    1
    62    47   101    1
    63    47   102    1
    64    47   103    1
    65    48   104    1
    66    49   105    1
    67    49   106    1
    68    49   107    1
    69    50   108    1
    70    51    59    1
    71    52   109    1
    72    52   110    1
    73    52   111    1
    74    53    54    1
    75    54    55    2
    76    54    56    1
    77    56   112    1
    78    56   113    1
    79    56   114    1
    80    57   115    1
    81    57   116    1
    82    57   117    1
    83    58   118    1
    84    58   119    1
    85    58   120    1
    86    59   121    1
    87    59   122    1
    88    59   123    1
    89    60    61    2
    90     1    47    1
    91     1    62    1
    92     2    63    1
    93     3    64    1
    94     4    65    1
    95     5     6    1
    96     7     8    2
    97     9    78    1
    98    15    79    1
    99    18    80    1
   100    18    81    1
   101    19    82    1
   102    19    83    1
   103    20    23    1
   104    21    84    1
   105    21    85    1
   106    22    86    1
   107    22    87    1
   108    27    45    1
   109    28    34    1
   110    32    58    1
   111    33    46    2
   112    36    51    1
   113    36    66    1
   114    37    52    1
   115    37    67    1
   116    38    53    1
   117    38    68    1
   118    42    48    1
   119    42    72    1
   120    43    44    2
   121    60    73    1
   122    61    74    1
   123    39    69    1
   124    39    57    1
   125    40    70    1
   126    40    50    1
   127    41    71    1
   128    41    49    1
