@<TRIPOS>MOLECULE
*****
 123 128 0 0 0
SMALL
GASTEIGER

@<TRIPOS>ATOM
     1 C         4.087279   2.570259   -2.587745 C.3        1 UNL1     0.0009
     2 C         5.576126   2.379111   -3.675785 C.2        1 UNL1     -0.0787
     3 C         7.013458   2.31912   -3.838646 C.2        1 UNL1     -0.0649
     4 C         7.887492   1.964436   -5.244569 C.2        1 UNL1     -0.0542
     5 C         9.135795   1.534234   -5.75813 C.2        1 UNL1     0.0115
     6 C         10.61585   1.245245   -5.384975 C.3        1 UNL1     -0.0348
     7 C         9.206763   0.977098   -7.261976 C.2        1 UNL1     0.2441
     8 O         9.632117   1.640191   -8.197874 O.2        1 UNL1     -0.2702
     9 N         8.99372   -0.406687   -7.388082 N.am        1 UNL1     -0.2772
     10 C         7.651224   -0.675307   -7.525448 C.2        1 UNL1     0.1049
     11 C         6.952312   -0.735956   -6.406491 C.2        1 UNL1     0.0801
     12 C         5.613276   0.004479   -8.806851 C.ar        1 UNL1     0.0753
     13 C         4.954501   0.126384   -7.542034 C.ar        1 UNL1     0.0305
     14 C         5.565878   -0.367316   -6.310153 C.2        1 UNL1     0.0924
     15 N         7.368749   -0.785781   -5.129531 N.pl3        1 UNL1     -0.3170
     16 C         6.215974   -1.016939   -4.300115 C.3        1 UNL1     0.1275
     17 N         5.065587   -0.427706   -5.079305 N.2        1 UNL1     -0.2557
     18 C         5.977488   -2.523502   -4.267062 C.3        1 UNL1     0.0016
     19 C         7.246598   -3.206271   -3.782525 C.3        1 UNL1     0.0026
     20 N         7.574279   -2.698464   -2.457464 N.3        1 UNL1     -0.3018
     21 C         7.761744   -1.248422   -2.376193 C.3        1 UNL1     0.0026
     22 C         6.473445   -0.582818   -2.863175 C.3        1 UNL1     0.0016
     23 C         8.583942   -3.490532   -1.78378 C.3        1 UNL1     0.0012
     24 C         9.420617   -2.609343   -0.842909 C.3        1 UNL1     -0.0339
     25 C         10.880621   -3.086742   -0.775557 C.3        1 UNL1     -0.0615
     26 C         9.327182   -1.155152   -1.271139 C.3        1 UNL1     -0.0615
     27 C         4.975178   0.366568   -9.990845 C.ar        1 UNL1     0.1347
     28 C         3.670339   0.823797   -10.039701 C.ar        1 UNL1     0.0342
     29 C         3.058442   0.981875   -8.778052 C.ar        1 UNL1     0.1435
     30 C         3.69793   0.657448   -7.580962 C.ar        1 UNL1     0.0774
     31 O         1.753703   1.313057   -8.664121 O.3        1 UNL1     -0.4436
     32 C         1.394772   0.919691   -7.330965 C.3        1 UNL1     0.3143
     33 C         2.69916   0.896319   -6.560097 C.2        1 UNL1     0.2504
     34 C         2.840603   0.990997   -11.282151 C.3        1 UNL1     -0.0327
     35 O         0.600375   1.97465   -6.774867 O.2        1 UNL1     -0.4528
     36 C         -1.767353   0.310501   -4.318739 C.3        1 UNL1     0.0854
     37 C         -1.433845   -0.590934   -3.068255 C.3        1 UNL1     0.0236
     38 C         -2.07053   -0.089397   -1.684479 C.3        1 UNL1     0.1131
     39 C         -1.875485   1.412965   -1.229356 C.3        1 UNL1     0.0200
     40 C         -0.389095   2.154993   -1.379275 C.3        1 UNL1     0.0661
     41 C         1.094086   1.524681   -0.84966 C.3        1 UNL1     0.0091
     42 C         2.783888   1.721468   -1.536134 C.3        1 UNL1     0.0661
     43 C         6.966488   -0.604416   -8.824858 C.2        1 UNL1     0.2131
     44 O         7.461271   -1.11596   -9.812912 O.2        1 UNL1     -0.2851
     45 O         5.702699   0.26008   -11.174404 O.3        1 UNL1     -0.5056
     46 O         2.876329   1.060247   -5.373677 O.2        1 UNL1     -0.2836
     47 C         3.913574   4.054534   -2.167344 C.3        1 UNL1     -0.0566
     48 O         3.403901   2.029954   -0.224823 O.3        1 UNL1     -0.3909
     49 C         0.915028   0.056833   -0.532084 C.3        1 UNL1     -0.0577
     50 O         -0.240734   2.724793   -2.664203 O.3        1 UNL1     -0.3910
     51 O         -2.427669   1.525354   -4.04388 O.3        1 UNL1     -0.3753
     52 C         0.008036   -1.190174   -3.15095 C.3        1 UNL1     -0.0564
     53 O         -2.040494   -1.125481   -0.599143 O.3        1 UNL1     -0.4608
     54 C         -1.811235   -0.879029   0.729251 C.2        1 UNL1     0.3042
     55 O         -1.047051   -1.484092   1.480091 O.2        1 UNL1     -0.2512
     56 C         -2.563096   0.308713   1.259052 C.3        1 UNL1     0.0332
     57 C         -3.167443   2.230696   -1.698755 C.3        1 UNL1     -0.0567
     58 C         0.849482   -0.523859   -7.4327 C.3        1 UNL1     0.0210
     59 C         -3.800285   1.562587   -4.431702 C.3        1 UNL1     0.0372
     60 C         -0.602481   0.641325   -5.184065 C.2        1 UNL1     -0.0208
     61 C         -0.234458   1.8   -5.732495 C.2        1 UNL1     0.0882
     62 H         3.449234   2.417173   -3.46648 H        1 UNL1     0.0365
     63 H         5.104371   2.32849   -4.659327 H        1 UNL1     0.0576
     64 H         7.688301   2.342708   -2.980077 H        1 UNL1     0.0615
     65 H         7.142979   2.044087   -6.041337 H        1 UNL1     0.0622
     66 H         -2.434451   -0.308441   -4.935129 H        1 UNL1     0.0645
     67 H         -2.002901   -1.519637   -3.247831 H        1 UNL1     0.0362
     68 H         -3.139567   -0.183751   -1.928978 H        1 UNL1     0.0741
     69 H         -2.069346   1.482844   -0.167309 H        1 UNL1     0.0359
     70 H         -0.540201   3.021958   -0.708009 H        1 UNL1     0.0600
     71 H         1.138409   1.962801   0.166728 H        1 UNL1     0.0348
     72 H         2.189964   2.549044   -1.950486 H        1 UNL1     0.0602
     73 H         -0.098065   -0.254765   -5.44833 H        1 UNL1     0.0628
     74 H         -0.661178   2.768975   -5.471274 H        1 UNL1     0.1022
     75 H         11.007639   0.382127   -5.975367 H        1 UNL1     0.0279
     76 H         11.335091   2.029304   -5.610836 H        1 UNL1     0.0279
     77 H         10.730287   0.873873   -4.356049 H        1 UNL1     0.0279
     78 H         9.316432   -0.880493   -6.546987 H        1 UNL1     0.1553
     79 H         8.297119   -1.051228   -4.856403 H        1 UNL1     0.1484
     80 H         5.12994   -2.736863   -3.604562 H        1 UNL1     0.0317
     81 H         5.702093   -2.897924   -5.258837 H        1 UNL1     0.0317
     82 H         8.082222   -3.055915   -4.481838 H        1 UNL1     0.0428
     83 H         7.055113   -4.279667   -3.768269 H        1 UNL1     0.0428
     84 H         7.927709   -0.884001   -1.357633 H        1 UNL1     0.0428
     85 H         8.654809   -0.920261   -2.925796 H        1 UNL1     0.0428
     86 H         6.596708   0.465848   -2.665455 H        1 UNL1     0.0317
     87 H         5.63633   -0.866836   -2.213814 H        1 UNL1     0.0317
     88 H         8.073832   -4.25582   -1.184267 H        1 UNL1     0.0429
     89 H         9.222381   -4.018667   -2.503672 H        1 UNL1     0.0429
     90 H         8.992175   -2.652764   0.165438 H        1 UNL1     0.0308
     91 H         11.044677   -3.744847   0.082979 H        1 UNL1     0.0233
     92 H         11.156709   -3.615644   -1.690788 H        1 UNL1     0.0233
     93 H         11.5881   -2.254387   -0.678127 H        1 UNL1     0.0233
     94 H         9.946679   -0.52909   -0.619905 H        1 UNL1     0.0233
     95 H         9.694174   -1.042895   -2.295188 H        1 UNL1     0.0233
     96 H         8.297292   -0.790455   -1.223281 H        1 UNL1     0.0233
     97 H         1.931553   0.397968   -11.247891 H        1 UNL1     0.0280
     98 H         2.516426   2.029893   -11.426586 H        1 UNL1     0.0280
     99 H         3.425635   0.676161   -12.16176 H        1 UNL1     0.0280
     100 H         5.841957   1.075499   -11.623092 H        1 UNL1     0.2922
     101 H         2.926665   4.40796   -2.465262 H        1 UNL1     0.0236
     102 H         4.708517   4.70085   -2.537917 H        1 UNL1     0.0236
     103 H         3.936932   4.180157   -1.07196 H        1 UNL1     0.0236
     104 H         4.288335   2.40765   -0.398295 H        1 UNL1     0.2098
     105 H         0.832304   -0.584841   -1.40571 H        1 UNL1     0.0234
     106 H         1.644894   -0.350002   0.167708 H        1 UNL1     0.0234
     107 H         0.0   0.0   0.0 H        1 UNL1     0.0234
     108 H         -0.220913   3.694612   -2.550955 H        1 UNL1     0.2098
     109 H         0.142553   -1.830039   -4.034234 H        1 UNL1     0.0234
     110 H         0.793287   -0.426881   -3.128422 H        1 UNL1     0.0234
     111 H         0.231617   -1.827737   -2.28523 H        1 UNL1     0.0234
     112 H         -1.860738   1.042491   1.666004 H        1 UNL1     0.0342
     113 H         -3.203554   0.758915   0.502102 H        1 UNL1     0.0342
     114 H         -3.207888   -0.032059   2.080807 H        1 UNL1     0.0342
     115 H         -3.936695   2.264056   -0.914965 H        1 UNL1     0.0234
     116 H         -2.957395   3.25985   -1.996701 H        1 UNL1     0.0234
     117 H         -3.72124   1.744586   -2.520307 H        1 UNL1     0.0234
     118 H         -0.237542   -0.57062   -7.245086 H        1 UNL1     0.0309
     119 H         1.067677   -0.998752   -8.394506 H        1 UNL1     0.0309
     120 H         1.2668   -1.185845   -6.666067 H        1 UNL1     0.0309
     121 H         -3.865101   2.127894   -5.360994 H        1 UNL1     0.0524
     122 H         -4.207542   0.556416   -4.626117 H        1 UNL1     0.0524
     123 H         -4.396155   2.041004   -3.659595 H        1 UNL1     0.0524
@<TRIPOS>BOND
     1     1     2    1
     2     1    42    1
     3     2     3    2
     4     3     4    1
     5     4     5    2
     6     5     7    1
     7     6    75    1
     8     6    76    1
     9     6    77    1
    10     7     9   am
    11     9    10    1
    12    10    11    2
    13    10    43    1
    14    11    14    1
    15    11    15    1
    16    12    13   ar
    17    12    27   ar
    18    12    43    1
    19    13    14    1
    20    13    30   ar
    21    14    17    2
    22    15    16    1
    23    16    17    1
    24    16    18    1
    25    16    22    1
    26    18    19    1
    27    19    20    1
    28    20    21    1
    29    21    22    1
    30    23    24    1
    31    23    88    1
    32    23    89    1
    33    24    25    1
    34    24    26    1
    35    24    90    1
    36    25    91    1
    37    25    92    1
    38    25    93    1
    39    26    94    1
    40    26    95    1
    41    26    96    1
    42    27    28   ar
    43    28    29   ar
    44    29    30   ar
    45    29    31    1
    46    30    33    1
    47    31    32    1
    48    32    33    1
    49    32    35    1
    50    34    97    1
    51    34    98    1
    52    34    99    1
    53    35    61    1
    54    36    37    1
    55    36    60    1
    56    37    38    1
    57    38    39    1
    58    39    40    1
    59    40    41    1
    60    41    42    1
    61    45   100    1
    62    47   101    1
    63    47   102    1
    64    47   103    1
    65    48   104    1
    66    49   105    1
    67    49   106    1
    68    49   107    1
    69    50   108    1
    70    51    59    1
    71    52   109    1
    72    52   110    1
    73    52   111    1
    74    53    54    1
    75    54    55    2
    76    54    56    1
    77    56   112    1
    78    56   113    1
    79    56   114    1
    80    57   115    1
    81    57   116    1
    82    57   117    1
    83    58   118    1
    84    58   119    1
    85    58   120    1
    86    59   121    1
    87    59   122    1
    88    59   123    1
    89    60    61    2
    90     1    47    1
    91     1    62    1
    92     2    63    1
    93     3    64    1
    94     4    65    1
    95     5     6    1
    96     7     8    2
    97     9    78    1
    98    15    79    1
    99    18    80    1
   100    18    81    1
   101    19    82    1
   102    19    83    1
   103    20    23    1
   104    21    84    1
   105    21    85    1
   106    22    86    1
   107    22    87    1
   108    27    45    1
   109    28    34    1
   110    32    58    1
   111    33    46    2
   112    36    51    1
   113    36    66    1
   114    37    52    1
   115    37    67    1
   116    38    53    1
   117    38    68    1
   118    42    48    1
   119    42    72    1
   120    43    44    2
   121    60    73    1
   122    61    74    1
   123    39    69    1
   124    39    57    1
   125    40    70    1
   126    40    50    1
   127    41    71    1
   128    41    49    1
