@<TRIPOS>MOLECULE
*****
 123 128 0 0 0
SMALL
GASTEIGER

@<TRIPOS>ATOM
     1 C         -0.819113   -3.959724   0.829332 C.3        1 UNL1     0.0009
     2 C         0.319598   -5.232379   1.550944 C.2        1 UNL1     -0.0787
     3 C         1.264052   -6.315776   1.376866 C.2        1 UNL1     -0.0649
     4 C         2.172126   -7.106004   2.56737 C.2        1 UNL1     -0.0542
     5 C         3.312882   -7.908571   2.815643 C.2        1 UNL1     0.0115
     6 C         4.428766   -8.750359   2.137764 C.3        1 UNL1     -0.0348
     7 C         3.890507   -7.996339   4.310847 C.2        1 UNL1     0.2441
     8 O         3.693218   -8.954609   5.045232 O.2        1 UNL1     -0.2702
     9 N         4.852444   -7.021789   4.628782 N.am        1 UNL1     -0.2772
     10 C         4.243572   -5.883595   5.105343 C.2        1 UNL1     0.1049
     11 C         3.787782   -5.042538   4.194793 C.2        1 UNL1     0.0801
     12 C         2.535457   -5.088278   6.750684 C.ar        1 UNL1     0.0753
     13 C         1.951864   -4.352592   5.670502 C.ar        1 UNL1     0.0305
     14 C         2.636953   -4.202657   4.388619 C.2        1 UNL1     0.0924
     15 N         4.001556   -5.006329   2.868325 N.pl3        1 UNL1     -0.3170
     16 C         3.418089   -3.792389   2.362194 C.3        1 UNL1     0.1275
     17 N         2.296312   -3.483017   3.323251 N.2        1 UNL1     -0.2557
     18 C         4.450365   -2.683971   2.545276 C.3        1 UNL1     0.0016
     19 C         5.73774   -3.098812   1.850898 C.3        1 UNL1     0.0026
     20 N         5.45631   -3.324868   0.439968 N.3        1 UNL1     -0.3018
     21 C         4.429515   -4.331898   0.164375 C.3        1 UNL1     0.0026
     22 C         3.143918   -3.892763   0.867435 C.3        1 UNL1     0.0016
     23 C         6.657129   -3.430862   -0.364671 C.3        1 UNL1     0.0012
     24 C         6.619508   -4.704961   -1.223165 C.3        1 UNL1     -0.0339
     25 C         7.487113   -5.818947   -0.614598 C.3        1 UNL1     -0.0615
     26 C         5.183378   -5.158838   -1.418881 C.3        1 UNL1     -0.0615
     27 C         1.934014   -5.125739   8.006464 C.ar        1 UNL1     0.1347
     28 C         0.773409   -4.437511   8.31206 C.ar        1 UNL1     0.0342
     29 C         0.190577   -3.759937   7.220105 C.ar        1 UNL1     0.1435
     30 C         0.762496   -3.743279   5.947371 C.ar        1 UNL1     0.0774
     31 O         -0.881598   -2.954121   7.381686 O.3        1 UNL1     -0.4436
     32 C         -0.880457   -2.111556   6.21938 C.3        1 UNL1     0.3143
     33 C         -0.10691   -2.884609   5.170463 C.2        1 UNL1     0.2504
     34 C         0.210327   -4.22648   9.689922 C.3        1 UNL1     -0.0327
     35 O         -2.233852   -2.021224   5.757412 O.2        1 UNL1     -0.4528
     36 C         -2.547949   1.386977   4.116194 C.3        1 UNL1     0.0854
     37 C         -1.715741   1.999512   2.92466 C.3        1 UNL1     0.0236
     38 C         -2.591104   2.516183   1.684283 C.3        1 UNL1     0.1131
     39 C         -3.678341   1.564719   1.040153 C.3        1 UNL1     0.0200
     40 C         -3.333453   -0.042623   0.757413 C.3        1 UNL1     0.0661
     41 C         -1.958029   -0.63906   -0.036365 C.3        1 UNL1     0.0091
     42 C         -1.025438   -2.199648   0.209074 C.3        1 UNL1     0.0661
     43 C         3.849166   -5.736786   6.51433 C.2        1 UNL1     0.2131
     44 O         4.619322   -6.04207   7.406743 O.2        1 UNL1     -0.2851
     45 O         2.5427   -5.902211   8.990348 O.3        1 UNL1     -0.5056
     46 O         -0.202586   -2.821971   3.965152 O.2        1 UNL1     -0.2836
     47 C         -2.117467   -4.631856   0.307317 C.3        1 UNL1     -0.0566
     48 O         -0.969274   -2.52682   -1.236236 O.3        1 UNL1     -0.3909
     49 C         -0.937776   0.472022   -0.146255 C.3        1 UNL1     -0.0577
     50 O         -3.606008   -0.822885   1.903985 O.3        1 UNL1     -0.3910
     51 O         -3.92589   1.208713   3.877593 O.3        1 UNL1     -0.3753
     52 C         -0.350722   1.262375   2.728955 C.3        1 UNL1     -0.0564
     53 O         -1.829914   3.397758   0.737847 O.3        1 UNL1     -0.4608
     54 C         -2.16543   3.638172   -0.568889 C.2        1 UNL1     0.3042
     55 O         -1.650934   3.149642   -1.574111 O.2        1 UNL1     -0.2512
     56 C         -3.334894   4.567499   -0.728323 C.3        1 UNL1     0.0332
     57 C         -5.086639   1.917981   1.711032 C.3        1 UNL1     -0.0567
     58 C         -0.078232   -0.844868   6.59815 C.3        1 UNL1     0.0210
     59 C         -4.728797   1.102544   5.0523 C.3        1 UNL1     0.0372
     60 C         -2.032868   0.094062   4.643663 C.2        1 UNL1     -0.0208
     61 C         -2.67917   -1.027494   4.964834 C.2        1 UNL1     0.0882
     62 H         -1.036148   -3.606125   1.844505 H        1 UNL1     0.0365
     63 H         0.131563   -5.09245   2.617496 H        1 UNL1     0.0576
     64 H         1.606656   -6.622869   0.386197 H        1 UNL1     0.0615
     65 H         1.701583   -6.794289   3.503802 H        1 UNL1     0.0622
     66 H         -2.434453   2.11264   4.933861 H        1 UNL1     0.0645
     67 H         -1.32695   2.949871   3.329901 H        1 UNL1     0.0362
     68 H         -3.161008   3.315744   2.181709 H        1 UNL1     0.0741
     69 H         -3.92119   1.932481   0.052133 H        1 UNL1     0.0359
     70 H         -4.149882   -0.291751   0.052828 H        1 UNL1     0.0600
     71 H         -2.339767   -0.686694   -1.075097 H        1 UNL1     0.0348
     72 H         -2.014278   -2.362906   0.661687 H        1 UNL1     0.0602
     73 H         -1.001807   0.197171   4.875029 H        1 UNL1     0.0628
     74 H         -3.719254   -1.234271   4.71046 H        1 UNL1     0.1022
     75 H         5.4328   -8.458816   2.53013 H        1 UNL1     0.0279
     76 H         4.40748   -9.82214   2.321883 H        1 UNL1     0.0279
     77 H         4.540549   -8.524796   1.067097 H        1 UNL1     0.0279
     78 H         5.368984   -6.764695   3.790232 H        1 UNL1     0.1553
     79 H         4.765001   -5.473137   2.414258 H        1 UNL1     0.1484
     80 H         4.052034   -1.751772   2.126822 H        1 UNL1     0.0317
     81 H         4.637976   -2.495603   3.607806 H        1 UNL1     0.0317
     82 H         6.180499   -3.992718   2.314372 H        1 UNL1     0.0428
     83 H         6.460506   -2.295206   1.995387 H        1 UNL1     0.0428
     84 H         4.180497   -4.425289   -0.897265 H        1 UNL1     0.0428
     85 H         4.758623   -5.340308   0.450931 H        1 UNL1     0.0428
     86 H         2.384794   -4.577143   0.536765 H        1 UNL1     0.0317
     87 H         2.808286   -2.928479   0.466682 H        1 UNL1     0.0317
     88 H         6.698642   -2.560515   -1.032554 H        1 UNL1     0.0429
     89 H         7.559417   -3.40052   0.259612 H        1 UNL1     0.0429
     90 H         6.999912   -4.474201   -2.22529 H        1 UNL1     0.0308
     91 H         8.03572   -6.363606   -1.388859 H        1 UNL1     0.0233
     92 H         8.197751   -5.405575   0.104934 H        1 UNL1     0.0233
     93 H         6.892082   -6.559096   -0.066006 H        1 UNL1     0.0233
     94 H         5.160822   -6.169728   -1.840103 H        1 UNL1     0.0233
     95 H         4.66471   -5.183026   -0.456405 H        1 UNL1     0.0233
     96 H         4.642306   -4.490696   -2.094748 H        1 UNL1     0.0233
     97 H         -0.373979   -3.313536   9.755879 H        1 UNL1     0.0280
     98 H         -0.465464   -5.038123   9.989586 H        1 UNL1     0.0280
     99 H         1.034181   -4.162939   10.419527 H        1 UNL1     0.0280
     100 H         3.349135   -5.550003   9.323867 H        1 UNL1     0.2922
     101 H         -2.764398   -3.880311   -0.144696 H        1 UNL1     0.0236
     102 H         -2.635791   -5.212646   1.069555 H        1 UNL1     0.0236
     103 H         -1.914314   -5.350727   -0.503945 H        1 UNL1     0.0236
     104 H         -1.275138   -3.448897   -1.342026 H        1 UNL1     0.2098
     105 H         -0.914233   0.965994   -1.114371 H        1 UNL1     0.0234
     106 H         -0.981137   1.210838   0.653869 H        1 UNL1     0.0234
     107 H         0.0   0.0   0.0 H        1 UNL1     0.0234
     108 H         -2.766126   -1.239195   2.177941 H        1 UNL1     0.2098
     109 H         -0.482581   0.192272   2.516341 H        1 UNL1     0.0234
     110 H         0.275825   1.715594   1.953215 H        1 UNL1     0.0234
     111 H         0.269139   1.311402   3.634115 H        1 UNL1     0.0234
     112 H         -3.562853   4.700026   -1.790311 H        1 UNL1     0.0342
     113 H         -4.210458   4.221605   -0.180976 H        1 UNL1     0.0342
     114 H         -3.052562   5.547509   -0.319628 H        1 UNL1     0.0342
     115 H         -4.963218   2.384826   2.697953 H        1 UNL1     0.0234
     116 H         -5.710858   2.581769   1.109547 H        1 UNL1     0.0234
     117 H         -5.686239   1.028292   1.969633 H        1 UNL1     0.0234
     118 H         1.000602   -0.960924   6.394058 H        1 UNL1     0.0309
     119 H         -0.441878   0.059107   6.099358 H        1 UNL1     0.0309
     120 H         -0.11063   -0.632366   7.672347 H        1 UNL1     0.0309
     121 H         -5.619981   0.53208   4.792075 H        1 UNL1     0.0524
     122 H         -4.213688   0.561821   5.863667 H        1 UNL1     0.0524
     123 H         -5.006833   2.090579   5.408078 H        1 UNL1     0.0524
@<TRIPOS>BOND
     1     1     2    1
     2     1    42    1
     3     2     3    2
     4     3     4    1
     5     4     5    2
     6     5     7    1
     7     6    75    1
     8     6    76    1
     9     6    77    1
    10     7     9   am
    11     9    10    1
    12    10    11    2
    13    10    43    1
    14    11    14    1
    15    11    15    1
    16    12    13   ar
    17    12    27   ar
    18    12    43    1
    19    13    14    1
    20    13    30   ar
    21    14    17    2
    22    15    16    1
    23    16    17    1
    24    16    18    1
    25    16    22    1
    26    18    19    1
    27    19    20    1
    28    20    21    1
    29    21    22    1
    30    23    24    1
    31    23    88    1
    32    23    89    1
    33    24    25    1
    34    24    26    1
    35    24    90    1
    36    25    91    1
    37    25    92    1
    38    25    93    1
    39    26    94    1
    40    26    95    1
    41    26    96    1
    42    27    28   ar
    43    28    29   ar
    44    29    30   ar
    45    29    31    1
    46    30    33    1
    47    31    32    1
    48    32    33    1
    49    32    35    1
    50    34    97    1
    51    34    98    1
    52    34    99    1
    53    35    61    1
    54    36    37    1
    55    36    60    1
    56    37    38    1
    57    38    39    1
    58    39    40    1
    59    40    41    1
    60    41    42    1
    61    45   100    1
    62    47   101    1
    63    47   102    1
    64    47   103    1
    65    48   104    1
    66    49   105    1
    67    49   106    1
    68    49   107    1
    69    50   108    1
    70    51    59    1
    71    52   109    1
    72    52   110    1
    73    52   111    1
    74    53    54    1
    75    54    55    2
    76    54    56    1
    77    56   112    1
    78    56   113    1
    79    56   114    1
    80    57   115    1
    81    57   116    1
    82    57   117    1
    83    58   118    1
    84    58   119    1
    85    58   120    1
    86    59   121    1
    87    59   122    1
    88    59   123    1
    89    60    61    2
    90     1    47    1
    91     1    62    1
    92     2    63    1
    93     3    64    1
    94     4    65    1
    95     5     6    1
    96     7     8    2
    97     9    78    1
    98    15    79    1
    99    18    80    1
   100    18    81    1
   101    19    82    1
   102    19    83    1
   103    20    23    1
   104    21    84    1
   105    21    85    1
   106    22    86    1
   107    22    87    1
   108    27    45    1
   109    28    34    1
   110    32    58    1
   111    33    46    2
   112    36    51    1
   113    36    66    1
   114    37    52    1
   115    37    67    1
   116    38    53    1
   117    38    68    1
   118    42    48    1
   119    42    72    1
   120    43    44    2
   121    60    73    1
   122    61    74    1
   123    39    69    1
   124    39    57    1
   125    40    70    1
   126    40    50    1
   127    41    71    1
   128    41    49    1
