@<TRIPOS>MOLECULE
*****
 123 128 0 0 0
SMALL
GASTEIGER

@<TRIPOS>ATOM
     1 C         5.072157   1.787992   1.041562 C.3        1 UNL1     0.0009
     2 C         6.878667   1.371468   1.033308 C.2        1 UNL1     -0.0787
     3 C         8.081422   0.983316   1.73954 C.2        1 UNL1     -0.0649
     4 C         9.59399   0.59696   1.084388 C.2        1 UNL1     -0.0542
     5 C         10.827289   -0.059678   1.318644 C.2        1 UNL1     0.0115
     6 C         11.700426   -0.742622   2.407011 C.3        1 UNL1     -0.0348
     7 C         11.758504   -0.433755   0.065689 C.2        1 UNL1     0.2441
     8 O         12.750218   0.212673   -0.242794 O.2        1 UNL1     -0.2702
     9 N         11.511048   -1.698822   -0.495134 N.am        1 UNL1     -0.2772
     10 C         10.530886   -1.614229   -1.457136 C.2        1 UNL1     0.1049
     11 C         9.284318   -1.636033   -1.021459 C.2        1 UNL1     0.0801
     12 C         9.842406   -0.310939   -3.478216 C.ar        1 UNL1     0.0753
     13 C         8.556825   -0.1842   -2.861914 C.ar        1 UNL1     0.0305
     14 C         8.19864   -0.955238   -1.67353 C.2        1 UNL1     0.0924
     15 N         8.799695   -1.937747   0.195355 N.pl3        1 UNL1     -0.3170
     16 C         7.364667   -1.978651   0.09904 C.3        1 UNL1     0.1275
     17 N         7.035109   -1.038489   -1.034631 N.2        1 UNL1     -0.2557
     18 C         6.983527   -3.374701   -0.384156 C.3        1 UNL1     0.0016
     19 C         7.578159   -4.398628   0.56956 C.3        1 UNL1     0.0026
     20 N         7.060381   -4.147728   1.907463 N.3        1 UNL1     -0.3018
     21 C         7.323972   -2.807309   2.434877 C.3        1 UNL1     0.0026
     22 C         6.714069   -1.794941   1.463782 C.3        1 UNL1     0.0016
     23 C         7.323775   -5.236287   2.827412 C.3        1 UNL1     0.0012
     24 C         7.482682   -4.704023   4.260311 C.3        1 UNL1     -0.0339
     25 C         8.509794   -5.526946   5.055228 C.3        1 UNL1     -0.0615
     26 C         7.849353   -3.230435   4.230811 C.3        1 UNL1     -0.0615
     27 C         10.134576   0.334204   -4.67761 C.ar        1 UNL1     0.1347
     28 C         9.213104   1.097738   -5.37184 C.ar        1 UNL1     0.0342
     29 C         7.969879   1.248264   -4.721533 C.ar        1 UNL1     0.1435
     30 C         7.674994   0.637471   -3.502027 C.ar        1 UNL1     0.0774
     31 O         6.931756   1.871019   -5.321101 O.3        1 UNL1     -0.4436
     32 C         5.774063   1.420643   -4.60153 C.3        1 UNL1     0.3143
     33 C         6.293867   0.988664   -3.245281 C.2        1 UNL1     0.2504
     34 C         9.371335   1.608911   -6.776747 C.3        1 UNL1     -0.0327
     35 O         4.937207   2.56309   -4.383034 O.2        1 UNL1     -0.4528
     36 C         1.378991   1.244433   -4.291787 C.3        1 UNL1     0.0854
     37 C         0.747189   0.14634   -3.352351 C.3        1 UNL1     0.0236
     38 C         -0.55136   0.618923   -2.538605 C.3        1 UNL1     0.1131
     39 C         -0.509932   1.963242   -1.705923 C.3        1 UNL1     0.0200
     40 C         0.816559   2.333593   -0.764807 C.3        1 UNL1     0.0661
     41 C         1.554099   1.302674   0.362514 C.3        1 UNL1     0.0091
     42 C         3.309476   1.162723   0.876777 C.3        1 UNL1     0.0661
     43 C         10.825253   -1.224255   -2.844083 C.2        1 UNL1     0.2131
     44 O         11.765426   -1.719157   -3.438965 O.2        1 UNL1     -0.2851
     45 O         11.424057   0.195875   -5.187062 O.3        1 UNL1     -0.5056
     46 O         5.706597   0.961741   -2.186866 O.2        1 UNL1     -0.2836
     47 C         4.849005   3.208798   1.625938 C.3        1 UNL1     -0.0566
     48 O         3.00225   1.152254   2.327508 O.3        1 UNL1     -0.3909
     49 C         1.045109   -0.104531   0.142972 C.3        1 UNL1     -0.0577
     50 O         1.802441   2.999293   -1.528092 O.3        1 UNL1     -0.3910
     51 O         0.840357   2.541714   -4.171927 O.3        1 UNL1     -0.3753
     52 C         1.840022   -0.771544   -2.713482 C.3        1 UNL1     -0.0564
     53 O         -1.329411   -0.515204   -1.938007 O.3        1 UNL1     -0.4608
     54 C         -2.232   -0.405217   -0.912744 C.2        1 UNL1     0.3042
     55 O         -2.059919   -0.701971   0.26885 O.2        1 UNL1     -0.2512
     56 C         -3.541523   0.203251   -1.327026 C.3        1 UNL1     0.0332
     57 C         -1.11583   3.120833   -2.628444 C.3        1 UNL1     -0.0567
     58 C         5.248265   0.176008   -5.353826 C.3        1 UNL1     0.0210
     59 C         1.466012   3.528511   -4.990861 C.3        1 UNL1     0.0372
     60 C         2.857517   1.382612   -4.191653 C.2        1 UNL1     -0.0208
     61 C         3.62048   2.473777   -4.114259 C.2        1 UNL1     0.0882
     62 H         5.112789   1.900806   -0.048545 H        1 UNL1     0.0365
     63 H         7.125115   1.554945   -0.01458 H        1 UNL1     0.0576
     64 H         8.066598   0.739302   2.804127 H        1 UNL1     0.0615
     65 H         9.528515   0.949929   0.05162 H        1 UNL1     0.0622
     66 H         1.17831   0.884598   -5.310754 H        1 UNL1     0.0645
     67 H         0.312186   -0.587651   -4.052772 H        1 UNL1     0.0362
     68 H         -1.233232   0.817482   -3.379525 H        1 UNL1     0.0741
     69 H         -1.316297   1.950943   -0.984791 H        1 UNL1     0.0359
     70 H         0.381337   3.124765   -0.124737 H        1 UNL1     0.0600
     71 H         1.003076   1.592303   1.278727 H        1 UNL1     0.0348
     72 H         3.208251   2.153322   0.410104 H        1 UNL1     0.0602
     73 H         3.30673   0.428839   -4.317242 H        1 UNL1     0.0628
     74 H         3.2416   3.479157   -3.92745 H        1 UNL1     0.1022
     75 H         12.270949   -1.598324   1.971911 H        1 UNL1     0.0279
     76 H         12.488142   -0.136028   2.848164 H        1 UNL1     0.0279
     77 H         11.100684   -1.250736   3.176317 H        1 UNL1     0.0279
     78 H         11.177456   -2.333812   0.227072 H        1 UNL1     0.1553
     79 H         9.313038   -2.451813   0.88756 H        1 UNL1     0.1484
     80 H         5.89037   -3.452846   -0.424985 H        1 UNL1     0.0317
     81 H         7.34851   -3.549712   -1.401904 H        1 UNL1     0.0317
     82 H         8.677794   -4.373834   0.559607 H        1 UNL1     0.0428
     83 H         7.295801   -5.386927   0.205432 H        1 UNL1     0.0428
     84 H         6.856701   -2.618485   3.406379 H        1 UNL1     0.0428
     85 H         8.394963   -2.643214   2.617543 H        1 UNL1     0.0428
     86 H         6.808189   -0.839138   1.945001 H        1 UNL1     0.0317
     87 H         5.628898   -1.942068   1.401705 H        1 UNL1     0.0317
     88 H         6.465429   -5.920307   2.801855 H        1 UNL1     0.0429
     89 H         8.204776   -5.814127   2.519658 H        1 UNL1     0.0429
     90 H         6.515865   -4.761874   4.774249 H        1 UNL1     0.0308
     91 H         9.417602   -5.702148   4.470171 H        1 UNL1     0.0233
     92 H         8.775066   -5.019054   5.985435 H        1 UNL1     0.0233
     93 H         8.122537   -6.511536   5.344105 H        1 UNL1     0.0233
     94 H         8.333196   -2.942728   5.170468 H        1 UNL1     0.0233
     95 H         8.552871   -3.036695   3.416262 H        1 UNL1     0.0233
     96 H         6.965383   -2.601991   4.090728 H        1 UNL1     0.0233
     97 H         9.278029   2.689503   -6.830093 H        1 UNL1     0.0280
     98 H         10.358305   1.371483   -7.194807 H        1 UNL1     0.0280
     99 H         8.596217   1.162901   -7.421234 H        1 UNL1     0.0280
     100 H         11.664745   -0.686387   -5.409113 H        1 UNL1     0.2922
     101 H         4.316385   3.824756   0.901668 H        1 UNL1     0.0236
     102 H         5.769549   3.681651   1.966514 H        1 UNL1     0.0236
     103 H         4.195713   3.193307   2.514286 H        1 UNL1     0.0236
     104 H         2.995189   2.080076   2.63421 H        1 UNL1     0.2098
     105 H         1.453402   -0.597851   -0.735517 H        1 UNL1     0.0234
     106 H         1.121496   -0.75724   1.01249 H        1 UNL1     0.0234
     107 H         -0.0   0.0   0.0 H        1 UNL1     0.0234
     108 H         1.361996   3.355184   -2.32378 H        1 UNL1     0.2098
     109 H         2.071966   -1.642067   -3.342849 H        1 UNL1     0.0234
     110 H         2.764944   -0.236268   -2.473187 H        1 UNL1     0.0234
     111 H         1.511274   -1.181153   -1.749069 H        1 UNL1     0.0234
     112 H         -4.238208   -0.584025   -1.630625 H        1 UNL1     0.0342
     113 H         -3.971241   0.823903   -0.542184 H        1 UNL1     0.0342
     114 H         -3.360211   0.847035   -2.198709 H        1 UNL1     0.0342
     115 H         -2.100857   2.848205   -3.031662 H        1 UNL1     0.0234
     116 H         -1.22302   4.08196   -2.121696 H        1 UNL1     0.0234
     117 H         -0.543986   3.287577   -3.557494 H        1 UNL1     0.0234
     118 H         4.646791   -0.479969   -4.700427 H        1 UNL1     0.0309
     119 H         4.663817   0.427478   -6.244548 H        1 UNL1     0.0309
     120 H         6.055709   -0.480385   -5.696298 H        1 UNL1     0.0309
     121 H         1.319038   4.496062   -4.511694 H        1 UNL1     0.0524
     122 H         2.552693   3.366337   -5.084994 H        1 UNL1     0.0524
     123 H         1.022558   3.530132   -5.982546 H        1 UNL1     0.0524
@<TRIPOS>BOND
     1     1     2    1
     2     1    42    1
     3     2     3    2
     4     3     4    1
     5     4     5    2
     6     5     7    1
     7     6    75    1
     8     6    76    1
     9     6    77    1
    10     7     9   am
    11     9    10    1
    12    10    11    2
    13    10    43    1
    14    11    14    1
    15    11    15    1
    16    12    13   ar
    17    12    27   ar
    18    12    43    1
    19    13    14    1
    20    13    30   ar
    21    14    17    2
    22    15    16    1
    23    16    17    1
    24    16    18    1
    25    16    22    1
    26    18    19    1
    27    19    20    1
    28    20    21    1
    29    21    22    1
    30    23    24    1
    31    23    88    1
    32    23    89    1
    33    24    25    1
    34    24    26    1
    35    24    90    1
    36    25    91    1
    37    25    92    1
    38    25    93    1
    39    26    94    1
    40    26    95    1
    41    26    96    1
    42    27    28   ar
    43    28    29   ar
    44    29    30   ar
    45    29    31    1
    46    30    33    1
    47    31    32    1
    48    32    33    1
    49    32    35    1
    50    34    97    1
    51    34    98    1
    52    34    99    1
    53    35    61    1
    54    36    37    1
    55    36    60    1
    56    37    38    1
    57    38    39    1
    58    39    40    1
    59    40    41    1
    60    41    42    1
    61    45   100    1
    62    47   101    1
    63    47   102    1
    64    47   103    1
    65    48   104    1
    66    49   105    1
    67    49   106    1
    68    49   107    1
    69    50   108    1
    70    51    59    1
    71    52   109    1
    72    52   110    1
    73    52   111    1
    74    53    54    1
    75    54    55    2
    76    54    56    1
    77    56   112    1
    78    56   113    1
    79    56   114    1
    80    57   115    1
    81    57   116    1
    82    57   117    1
    83    58   118    1
    84    58   119    1
    85    58   120    1
    86    59   121    1
    87    59   122    1
    88    59   123    1
    89    60    61    2
    90     1    47    1
    91     1    62    1
    92     2    63    1
    93     3    64    1
    94     4    65    1
    95     5     6    1
    96     7     8    2
    97     9    78    1
    98    15    79    1
    99    18    80    1
   100    18    81    1
   101    19    82    1
   102    19    83    1
   103    20    23    1
   104    21    84    1
   105    21    85    1
   106    22    86    1
   107    22    87    1
   108    27    45    1
   109    28    34    1
   110    32    58    1
   111    33    46    2
   112    36    51    1
   113    36    66    1
   114    37    52    1
   115    37    67    1
   116    38    53    1
   117    38    68    1
   118    42    48    1
   119    42    72    1
   120    43    44    2
   121    60    73    1
   122    61    74    1
   123    39    69    1
   124    39    57    1
   125    40    70    1
   126    40    50    1
   127    41    71    1
   128    41    49    1
