@<TRIPOS>MOLECULE
*****
 123 128 0 0 0
SMALL
GASTEIGER

@<TRIPOS>ATOM
     1 C         -4.020886   1.276656   -0.267541 C.3        1 UNL1     0.0009
     2 C         -4.710106   2.620529   -1.342725 C.2        1 UNL1     -0.0787
     3 C         -5.230158   3.962782   -1.497476 C.2        1 UNL1     -0.0649
     4 C         -5.641084   4.760427   -2.933184 C.2        1 UNL1     -0.0542
     5 C         -5.865295   6.022193   -3.537134 C.2        1 UNL1     0.0115
     6 C         -6.044024   7.538521   -3.250554 C.3        1 UNL1     -0.0348
     7 C         -5.831238   6.134165   -5.138163 C.2        1 UNL1     0.2441
     8 O         -6.843202   6.202633   -5.822098 O.2        1 UNL1     -0.2702
     9 N         -4.565025   6.411021   -5.682412 N.am        1 UNL1     -0.2772
     10 C         -3.875344   5.242796   -5.912439 C.2        1 UNL1     0.1049
     11 C         -3.243624   4.725774   -4.874248 C.2        1 UNL1     0.0801
     12 C         -4.099666   2.978785   -6.95228 C.ar        1 UNL1     0.0753
     13 C         -3.602191   2.449359   -5.719058 C.ar        1 UNL1     0.0305
     14 C         -3.034485   3.315445   -4.688206 C.2        1 UNL1     0.0924
     15 N         -2.984355   5.258543   -3.667822 N.pl3        1 UNL1     -0.3170
     16 C         -2.118941   4.350347   -2.963199 C.3        1 UNL1     0.1275
     17 N         -2.443502   2.994335   -3.540795 N.2        1 UNL1     -0.2557
     18 C         -0.688942   4.662721   -3.393579 C.3        1 UNL1     0.0016
     19 C         -0.409912   6.132694   -3.123561 C.3        1 UNL1     0.0026
     20 N         -0.597749   6.391158   -1.702667 N.3        1 UNL1     -0.3018
     21 C         -1.926136   6.062666   -1.181275 C.3        1 UNL1     0.0026
     22 C         -2.183655   4.580642   -1.459097 C.3        1 UNL1     0.0016
     23 C         -0.072551   7.677164   -1.289147 C.3        1 UNL1     0.0012
     24 C         -0.663535   8.089037   0.068371 C.3        1 UNL1     -0.0339
     25 C         -1.921265   8.956156   -0.105625 C.3        1 UNL1     -0.0615
     26 C         -0.946521   6.856022   0.908831 C.3        1 UNL1     -0.0615
     27 C         -4.527338   2.13901   -7.977947 C.ar        1 UNL1     0.1347
     28 C         -4.468268   0.758859   -7.902156 C.ar        1 UNL1     0.0342
     29 C         -4.020878   0.259987   -6.66033 C.ar        1 UNL1     0.1435
     30 C         -3.623272   1.089091   -5.610703 C.ar        1 UNL1     0.0774
     31 O         -3.803438   -1.059365   -6.46788 O.3        1 UNL1     -0.4436
     32 C         -2.940103   -1.121356   -5.322593 C.3        1 UNL1     0.3143
     33 C         -3.175055   0.177684   -4.578615 C.2        1 UNL1     0.2504
     34 C         -4.670147   -0.19639   -9.045329 C.3        1 UNL1     -0.0327
     35 O         -3.422683   -2.176709   -4.481999 O.2        1 UNL1     -0.4528
     36 C         -0.376032   -3.547635   -2.680176 C.3        1 UNL1     0.0854
     37 C         0.659572   -2.794536   -1.759368 C.3        1 UNL1     0.0236
     38 C         0.84727   -3.425307   -0.296958 C.3        1 UNL1     0.1131
     39 C         -0.422555   -3.727793   0.596527 C.3        1 UNL1     0.0200
     40 C         -1.666553   -2.621261   0.698962 C.3        1 UNL1     0.0661
     41 C         -1.499342   -0.966079   1.030662 C.3        1 UNL1     0.0091
     42 C         -2.489808   0.468219   0.458674 C.3        1 UNL1     0.0661
     43 C         -4.061486   4.450711   -7.137309 C.2        1 UNL1     0.2131
     44 O         -4.074443   4.992554   -8.22771 O.2        1 UNL1     -0.2851
     45 O         -5.04023   2.735097   -9.128191 O.3        1 UNL1     -0.5056
     46 O         -3.0434   0.40343   -3.396431 O.2        1 UNL1     -0.2836
     47 C         -5.149693   0.63396   0.582588 C.3        1 UNL1     -0.0566
     48 O         -2.612255   1.067563   1.809566 O.3        1 UNL1     -0.3909
     49 C         -0.043444   -0.583595   0.883827 C.3        1 UNL1     -0.0577
     50 O         -2.595035   -2.812558   -0.349394 O.3        1 UNL1     -0.3910
     51 O         -1.130166   -4.562713   -2.057014 O.3        1 UNL1     -0.3753
     52 C         0.638119   -1.249979   -2.001919 C.3        1 UNL1     -0.0564
     53 O         2.065588   -2.923643   0.421624 O.3        1 UNL1     -0.4608
     54 C         2.06281   -2.047245   1.475117 C.2        1 UNL1     0.3042
     55 O         2.042018   -2.321152   2.674443 O.2        1 UNL1     -0.2512
     56 C         2.151789   -0.606508   1.059097 C.3        1 UNL1     0.0332
     57 C         -0.80829   -5.265077   0.381728 C.3        1 UNL1     -0.0567
     58 C         -1.492341   -1.130145   -5.866135 C.3        1 UNL1     0.0210
     59 C         -2.52793   -4.531602   -2.341888 C.3        1 UNL1     0.0372
     60 C         -1.344409   -2.666901   -3.388493 C.2        1 UNL1     -0.0208
     61 C         -2.662369   -2.787684   -3.553227 C.2        1 UNL1     0.0882
     62 H         -3.904808   0.649032   -1.159351 H        1 UNL1     0.0365
     63 H         -4.775759   2.101036   -2.300998 H        1 UNL1     0.0576
     64 H         -5.250921   4.668268   -0.66383 H        1 UNL1     0.0615
     65 H         -5.668376   3.95991   -3.677436 H        1 UNL1     0.0622
     66 H         0.238452   -4.011866   -3.46436 H        1 UNL1     0.0645
     67 H         1.638032   -3.014677   -2.220577 H        1 UNL1     0.0362
     68 H         1.251777   -4.411219   -0.572411 H        1 UNL1     0.0741
     69 H         -0.10764   -3.826574   1.626808 H        1 UNL1     0.0359
     70 H         -2.185147   -3.000272   1.600333 H        1 UNL1     0.0600
     71 H         -1.610636   -0.977587   2.132677 H        1 UNL1     0.0348
     72 H         -3.123977   -0.417528   0.308348 H        1 UNL1     0.0602
     73 H         -0.81222   -1.90817   -3.906519 H        1 UNL1     0.0628
     74 H         -3.288377   -3.500113   -3.014899 H        1 UNL1     0.1022
     75 H         -6.440292   8.063945   -4.152737 H        1 UNL1     0.0279
     76 H         -6.770289   7.805465   -2.486127 H        1 UNL1     0.0279
     77 H         -5.086664   8.058567   -3.09984 H        1 UNL1     0.0279
     78 H         -4.021747   6.962414   -5.021434 H        1 UNL1     0.1553
     79 H         -3.010727   6.24324   -3.476489 H        1 UNL1     0.1484
     80 H         0.000915   4.015562   -2.838557 H        1 UNL1     0.0317
     81 H         -0.542326   4.439234   -4.455751 H        1 UNL1     0.0317
     82 H         -1.050248   6.787282   -3.732986 H        1 UNL1     0.0428
     83 H         0.614155   6.334256   -3.439329 H        1 UNL1     0.0428
     84 H         -2.016126   6.190534   -0.098057 H        1 UNL1     0.0428
     85 H         -2.701741   6.723009   -1.593224 H        1 UNL1     0.0428
     86 H         -3.099831   4.34552   -0.949854 H        1 UNL1     0.0317
     87 H         -1.438877   3.966779   -0.937969 H        1 UNL1     0.0317
     88 H         1.016051   7.583161   -1.182358 H        1 UNL1     0.0429
     89 H         -0.255795   8.44624   -2.050538 H        1 UNL1     0.0429
     90 H         0.084103   8.666077   0.625395 H        1 UNL1     0.0308
     91 H         -1.892208   9.834358   0.54631 H        1 UNL1     0.0233
     92 H         -2.024741   9.282869   -1.143007 H        1 UNL1     0.0233
     93 H         -2.841399   8.41061   0.136383 H        1 UNL1     0.0233
     94 H         -0.007603   6.415609   1.261399 H        1 UNL1     0.0233
     95 H         -1.540619   7.129557   1.785294 H        1 UNL1     0.0233
     96 H         -1.489817   6.098982   0.33639 H        1 UNL1     0.0233
     97 H         -4.16057   -1.141249   -8.881615 H        1 UNL1     0.0280
     98 H         -5.728671   -0.447432   -9.192845 H        1 UNL1     0.0280
     99 H         -4.278742   0.251008   -9.973624 H        1 UNL1     0.0280
     100 H         -4.527615   3.451191   -9.45994 H        1 UNL1     0.2922
     101 H         -5.754009   1.415599   1.042478 H        1 UNL1     0.0236
     102 H         -4.779441   -0.081546   1.316037 H        1 UNL1     0.0236
     103 H         -5.858895   0.059905   -0.036836 H        1 UNL1     0.0236
     104 H         -3.557907   1.261458   1.961611 H        1 UNL1     0.2098
     105 H         0.347099   0.019045   1.699985 H        1 UNL1     0.0234
     106 H         0.627421   -1.416774   0.674831 H        1 UNL1     0.0234
     107 H         0.0   0.0   0.0 H        1 UNL1     0.0234
     108 H         -2.515935   -2.046774   -0.950299 H        1 UNL1     0.2098
     109 H         0.064307   -0.715888   -1.231725 H        1 UNL1     0.0234
     110 H         1.639282   -0.812926   -2.081924 H        1 UNL1     0.0234
     111 H         0.160061   -0.996978   -2.957637 H        1 UNL1     0.0234
     112 H         2.286905   -0.539765   -0.024709 H        1 UNL1     0.0342
     113 H         1.283714   -0.033021   1.380658 H        1 UNL1     0.0342
     114 H         3.037583   -0.165563   1.536697 H        1 UNL1     0.0342
     115 H         -0.435836   -5.649367   -0.577848 H        1 UNL1     0.0234
     116 H         -0.440192   -5.928975   1.166453 H        1 UNL1     0.0234
     117 H         -1.893229   -5.43532   0.272789 H        1 UNL1     0.0234
     118 H         -1.322845   -0.329467   -6.60721 H        1 UNL1     0.0309
     119 H         -0.736924   -1.054101   -5.077614 H        1 UNL1     0.0309
     120 H         -1.258092   -2.043767   -6.423387 H        1 UNL1     0.0309
     121 H         -2.959845   -5.462548   -1.975631 H        1 UNL1     0.0524
     122 H         -3.041411   -3.702374   -1.827345 H        1 UNL1     0.0524
     123 H         -2.691468   -4.437897   -3.411734 H        1 UNL1     0.0524
@<TRIPOS>BOND
     1     1     2    1
     2     1    42    1
     3     2     3    2
     4     3     4    1
     5     4     5    2
     6     5     7    1
     7     6    75    1
     8     6    76    1
     9     6    77    1
    10     7     9   am
    11     9    10    1
    12    10    11    2
    13    10    43    1
    14    11    14    1
    15    11    15    1
    16    12    13   ar
    17    12    27   ar
    18    12    43    1
    19    13    14    1
    20    13    30   ar
    21    14    17    2
    22    15    16    1
    23    16    17    1
    24    16    18    1
    25    16    22    1
    26    18    19    1
    27    19    20    1
    28    20    21    1
    29    21    22    1
    30    23    24    1
    31    23    88    1
    32    23    89    1
    33    24    25    1
    34    24    26    1
    35    24    90    1
    36    25    91    1
    37    25    92    1
    38    25    93    1
    39    26    94    1
    40    26    95    1
    41    26    96    1
    42    27    28   ar
    43    28    29   ar
    44    29    30   ar
    45    29    31    1
    46    30    33    1
    47    31    32    1
    48    32    33    1
    49    32    35    1
    50    34    97    1
    51    34    98    1
    52    34    99    1
    53    35    61    1
    54    36    37    1
    55    36    60    1
    56    37    38    1
    57    38    39    1
    58    39    40    1
    59    40    41    1
    60    41    42    1
    61    45   100    1
    62    47   101    1
    63    47   102    1
    64    47   103    1
    65    48   104    1
    66    49   105    1
    67    49   106    1
    68    49   107    1
    69    50   108    1
    70    51    59    1
    71    52   109    1
    72    52   110    1
    73    52   111    1
    74    53    54    1
    75    54    55    2
    76    54    56    1
    77    56   112    1
    78    56   113    1
    79    56   114    1
    80    57   115    1
    81    57   116    1
    82    57   117    1
    83    58   118    1
    84    58   119    1
    85    58   120    1
    86    59   121    1
    87    59   122    1
    88    59   123    1
    89    60    61    2
    90     1    47    1
    91     1    62    1
    92     2    63    1
    93     3    64    1
    94     4    65    1
    95     5     6    1
    96     7     8    2
    97     9    78    1
    98    15    79    1
    99    18    80    1
   100    18    81    1
   101    19    82    1
   102    19    83    1
   103    20    23    1
   104    21    84    1
   105    21    85    1
   106    22    86    1
   107    22    87    1
   108    27    45    1
   109    28    34    1
   110    32    58    1
   111    33    46    2
   112    36    51    1
   113    36    66    1
   114    37    52    1
   115    37    67    1
   116    38    53    1
   117    38    68    1
   118    42    48    1
   119    42    72    1
   120    43    44    2
   121    60    73    1
   122    61    74    1
   123    39    69    1
   124    39    57    1
   125    40    70    1
   126    40    50    1
   127    41    71    1
   128    41    49    1
