@<TRIPOS>MOLECULE
*****
 123 128 0 0 0
SMALL
GASTEIGER

@<TRIPOS>ATOM
     1 C         5.16467   1.759191   0.480314 C.3        1 UNL1     0.0009
     2 C         6.597572   2.569131   -0.372814 C.2        1 UNL1     -0.0787
     3 C         7.878018   2.474277   -1.041773 C.2        1 UNL1     -0.0649
     4 C         8.751013   3.711964   -1.798322 C.2        1 UNL1     -0.0542
     5 C         9.768118   4.00765   -2.739143 C.2        1 UNL1     0.0115
     6 C         10.895503   3.385406   -3.608131 C.3        1 UNL1     -0.0348
     7 C         9.858853   5.491681   -3.344459 C.2        1 UNL1     0.2441
     8 O         10.681931   6.3147   -2.968018 O.2        1 UNL1     -0.2702
     9 N         9.10533   5.698184   -4.513096 N.am        1 UNL1     -0.2772
     10 C         7.822578   6.081866   -4.19583 C.2        1 UNL1     0.1049
     11 C         6.979554   5.108398   -3.902756 C.2        1 UNL1     0.0801
     12 C         6.524274   7.684438   -2.780378 C.ar        1 UNL1     0.0753
     13 C         5.768688   6.554502   -2.332111 C.ar        1 UNL1     0.0305
     14 C         5.886781   5.249665   -2.979032 C.2        1 UNL1     0.0924
     15 N         7.104577   3.779833   -4.063418 N.pl3        1 UNL1     -0.3170
     16 C         5.836753   3.177694   -3.746707 C.3        1 UNL1     0.1275
     17 N         5.200751   4.130654   -2.764315 N.2        1 UNL1     -0.2557
     18 C         4.980688   3.236174   -5.008227 C.3        1 UNL1     0.0016
     19 C         5.734236   2.554746   -6.139338 C.3        1 UNL1     0.0026
     20 N         6.008218   1.176849   -5.755461 N.3        1 UNL1     -0.3018
     21 C         6.774947   1.016881   -4.518163 C.3        1 UNL1     0.0026
     22 C         5.997502   1.704694   -3.394602 C.3        1 UNL1     0.0016
     23 C         6.451725   0.359306   -6.867022 C.3        1 UNL1     0.0012
     24 C         5.294402   0.108335   -7.846499 C.3        1 UNL1     -0.0339
     25 C         5.325147   1.101673   -9.019696 C.3        1 UNL1     -0.0615
     26 C         5.325343   -1.330638   -8.331454 C.3        1 UNL1     -0.0615
     27 C         6.318274   8.951184   -2.23905 C.ar        1 UNL1     0.1347
     28 C         5.361008   9.217801   -1.276445 C.ar        1 UNL1     0.0342
     29 C         4.662963   8.08144   -0.815379 C.ar        1 UNL1     0.1435
     30 C         4.88386   6.800358   -1.322582 C.ar        1 UNL1     0.0774
     31 O         3.623833   8.192005   0.040768 O.3        1 UNL1     -0.4436
     32 C         2.904401   6.957806   -0.100799 C.3        1 UNL1     0.3143
     33 C         3.918473   5.96734   -0.636379 C.2        1 UNL1     0.2504
     34 C         4.912383   10.582543   -0.833371 C.3        1 UNL1     -0.0327
     35 O         2.547916   6.5191   1.215905 O.2        1 UNL1     -0.4528
     36 C         -0.692028   4.580473   0.825294 C.3        1 UNL1     0.0854
     37 C         -0.996888   3.320099   -0.072504 C.3        1 UNL1     0.0236
     38 C         -1.592854   2.05705   0.715706 C.3        1 UNL1     0.1131
     39 C         -0.862785   1.526413   2.014819 C.3        1 UNL1     0.0200
     40 C         0.798806   1.384324   2.051767 C.3        1 UNL1     0.0661
     41 C         1.756911   0.618618   0.879872 C.3        1 UNL1     0.0091
     42 C         3.46234   0.985298   0.312018 C.3        1 UNL1     0.0661
     43 C         7.471991   7.479792   -3.90386 C.2        1 UNL1     0.2131
     44 O         7.868218   8.379386   -4.62252 O.2        1 UNL1     -0.2851
     45 O         7.127234   9.988429   -2.698554 O.3        1 UNL1     -0.5056
     46 O         3.937312   4.763719   -0.506781 O.2        1 UNL1     -0.2836
     47 C         5.565471   1.329195   1.917131 C.3        1 UNL1     -0.0566
     48 O         3.914067   -0.424937   0.391365 O.3        1 UNL1     -0.3909
     49 C         0.920165   0.38544   -0.358263 C.3        1 UNL1     -0.0577
     50 O         1.39741   2.603076   2.444246 O.3        1 UNL1     -0.3910
     51 O         -0.812292   4.389231   2.216837 O.3        1 UNL1     -0.3753
     52 C         0.045061   3.162906   -1.227745 C.3        1 UNL1     -0.0564
     53 O         -2.195488   1.017647   -0.183627 O.3        1 UNL1     -0.4608
     54 C         -2.426317   -0.289913   0.155395 C.2        1 UNL1     0.3042
     55 O         -1.856202   -1.287434   -0.284787 O.2        1 UNL1     -0.2512
     56 C         -3.463344   -0.458747   1.229072 C.3        1 UNL1     0.0332
     57 C         -1.582107   2.192708   3.278465 C.3        1 UNL1     -0.0567
     58 C         1.826026   7.201652   -1.182083 C.3        1 UNL1     0.0210
     59 C         -1.126139   5.566882   2.958797 C.3        1 UNL1     0.0372
     60 C         0.635073   5.212563   0.591999 C.2        1 UNL1     -0.0208
     61 C         1.549232   5.6489   1.459563 C.2        1 UNL1     0.0882
     62 H         4.686902   2.74228   0.569679 H        1 UNL1     0.0365
     63 H         6.329374   3.62227   -0.265863 H        1 UNL1     0.0576
     64 H         8.337154   1.508598   -1.264855 H        1 UNL1     0.0615
     65 H         8.262868   4.626011   -1.449445 H        1 UNL1     0.0622
     66 H         -1.439005   5.325724   0.517608 H        1 UNL1     0.0645
     67 H         -1.864588   3.628216   -0.681372 H        1 UNL1     0.0362
     68 H         -2.539968   2.491607   1.070187 H        1 UNL1     0.0741
     69 H         -1.191703   0.51444   2.210089 H        1 UNL1     0.0359
     70 H         0.91414   0.723408   2.932079 H        1 UNL1     0.0600
     71 H         1.803689   -0.402851   1.305747 H        1 UNL1     0.0348
     72 H         3.357853   1.472366   1.292406 H        1 UNL1     0.0602
     73 H         0.749996   5.411025   -0.444656 H        1 UNL1     0.0628
     74 H         1.534769   5.437203   2.529242 H        1 UNL1     0.1022
     75 H         10.940598   2.279667   -3.458663 H        1 UNL1     0.0279
     76 H         10.780506   3.47156   -4.686288 H        1 UNL1     0.0279
     77 H         11.900864   3.689466   -3.281791 H        1 UNL1     0.0279
     78 H         9.043858   4.828596   -5.038562 H        1 UNL1     0.1553
     79 H         7.769217   3.353814   -4.682849 H        1 UNL1     0.1484
     80 H         4.02092   2.743043   -4.81218 H        1 UNL1     0.0317
     81 H         4.751237   4.2727   -5.277701 H        1 UNL1     0.0317
     82 H         6.663167   3.088231   -6.389123 H        1 UNL1     0.0428
     83 H         5.106769   2.609406   -7.029477 H        1 UNL1     0.0428
     84 H         6.898216   -0.026102   -4.210266 H        1 UNL1     0.0428
     85 H         7.804006   1.387172   -4.62418 H        1 UNL1     0.0428
     86 H         6.51669   1.454572   -2.488032 H        1 UNL1     0.0317
     87 H         5.019373   1.224886   -3.267541 H        1 UNL1     0.0317
     88 H         7.245345   0.903261   -7.39577 H        1 UNL1     0.0429
     89 H         6.887168   -0.585882   -6.518047 H        1 UNL1     0.0429
     90 H         4.342432   0.224918   -7.315111 H        1 UNL1     0.0308
     91 H         6.277097   1.053392   -9.556876 H        1 UNL1     0.0233
     92 H         4.508951   0.900637   -9.717563 H        1 UNL1     0.0233
     93 H         5.197647   2.140211   -8.691037 H        1 UNL1     0.0233
     94 H         4.629067   -1.462787   -9.166662 H        1 UNL1     0.0233
     95 H         6.328513   -1.584106   -8.685525 H        1 UNL1     0.0233
     96 H         5.045837   -2.026189   -7.53518 H        1 UNL1     0.0233
     97 H         4.11467   10.530541   -0.098402 H        1 UNL1     0.0280
     98 H         5.722698   11.150362   -0.357738 H        1 UNL1     0.0280
     99 H         4.544171   11.150493   -1.703399 H        1 UNL1     0.0280
     100 H         6.657849   10.738878   -3.018125 H        1 UNL1     0.2922
     101 H         4.704821   0.893278   2.423996 H        1 UNL1     0.0236
     102 H         6.015991   2.13495   2.495728 H        1 UNL1     0.0236
     103 H         6.323399   0.528117   1.913418 H        1 UNL1     0.0236
     104 H         4.335706   -0.550944   1.263898 H        1 UNL1     0.2098
     105 H         0.704215   1.284351   -0.930221 H        1 UNL1     0.0234
     106 H         1.289584   -0.401198   -1.01603 H        1 UNL1     0.0234
     107 H         0.0   -0.0   0.0 H        1 UNL1     0.0234
     108 H         1.201157   3.259901   1.748664 H        1 UNL1     0.2098
     109 H         1.07249   3.063629   -0.850592 H        1 UNL1     0.0234
     110 H         -0.180625   2.328341   -1.900285 H        1 UNL1     0.0234
     111 H         0.05399   4.041123   -1.886988 H        1 UNL1     0.0234
     112 H         -3.58392   -1.520102   1.466419 H        1 UNL1     0.0342
     113 H         -3.225433   0.1168   2.122374 H        1 UNL1     0.0342
     114 H         -4.422499   -0.089405   0.84078 H        1 UNL1     0.0342
     115 H         -2.65111   1.942148   3.318982 H        1 UNL1     0.0234
     116 H         -1.142689   1.912981   4.238003 H        1 UNL1     0.0234
     117 H         -1.62314   3.294524   3.230953 H        1 UNL1     0.0234
     118 H         0.924334   7.684871   -0.766804 H        1 UNL1     0.0309
     119 H         2.191638   7.792487   -2.027923 H        1 UNL1     0.0309
     120 H         1.439467   6.269309   -1.608012 H        1 UNL1     0.0309
     121 H         -0.30691   6.271899   2.820333 H        1 UNL1     0.0524
     122 H         -2.047852   6.054321   2.599791 H        1 UNL1     0.0524
     123 H         -1.241006   5.327924   4.012267 H        1 UNL1     0.0524
@<TRIPOS>BOND
     1     1     2    1
     2     1    42    1
     3     2     3    2
     4     3     4    1
     5     4     5    2
     6     5     7    1
     7     6    75    1
     8     6    76    1
     9     6    77    1
    10     7     9   am
    11     9    10    1
    12    10    11    2
    13    10    43    1
    14    11    14    1
    15    11    15    1
    16    12    13   ar
    17    12    27   ar
    18    12    43    1
    19    13    14    1
    20    13    30   ar
    21    14    17    2
    22    15    16    1
    23    16    17    1
    24    16    18    1
    25    16    22    1
    26    18    19    1
    27    19    20    1
    28    20    21    1
    29    21    22    1
    30    23    24    1
    31    23    88    1
    32    23    89    1
    33    24    25    1
    34    24    26    1
    35    24    90    1
    36    25    91    1
    37    25    92    1
    38    25    93    1
    39    26    94    1
    40    26    95    1
    41    26    96    1
    42    27    28   ar
    43    28    29   ar
    44    29    30   ar
    45    29    31    1
    46    30    33    1
    47    31    32    1
    48    32    33    1
    49    32    35    1
    50    34    97    1
    51    34    98    1
    52    34    99    1
    53    35    61    1
    54    36    37    1
    55    36    60    1
    56    37    38    1
    57    38    39    1
    58    39    40    1
    59    40    41    1
    60    41    42    1
    61    45   100    1
    62    47   101    1
    63    47   102    1
    64    47   103    1
    65    48   104    1
    66    49   105    1
    67    49   106    1
    68    49   107    1
    69    50   108    1
    70    51    59    1
    71    52   109    1
    72    52   110    1
    73    52   111    1
    74    53    54    1
    75    54    55    2
    76    54    56    1
    77    56   112    1
    78    56   113    1
    79    56   114    1
    80    57   115    1
    81    57   116    1
    82    57   117    1
    83    58   118    1
    84    58   119    1
    85    58   120    1
    86    59   121    1
    87    59   122    1
    88    59   123    1
    89    60    61    2
    90     1    47    1
    91     1    62    1
    92     2    63    1
    93     3    64    1
    94     4    65    1
    95     5     6    1
    96     7     8    2
    97     9    78    1
    98    15    79    1
    99    18    80    1
   100    18    81    1
   101    19    82    1
   102    19    83    1
   103    20    23    1
   104    21    84    1
   105    21    85    1
   106    22    86    1
   107    22    87    1
   108    27    45    1
   109    28    34    1
   110    32    58    1
   111    33    46    2
   112    36    51    1
   113    36    66    1
   114    37    52    1
   115    37    67    1
   116    38    53    1
   117    38    68    1
   118    42    48    1
   119    42    72    1
   120    43    44    2
   121    60    73    1
   122    61    74    1
   123    39    69    1
   124    39    57    1
   125    40    70    1
   126    40    50    1
   127    41    71    1
   128    41    49    1
