@<TRIPOS>MOLECULE
*****
 123 128 0 0 0
SMALL
GASTEIGER

@<TRIPOS>ATOM
     1 C         4.991277   2.175856   0.603787 C.3        1 UNL1     0.0009
     2 C         6.404206   3.031025   -0.238444 C.2        1 UNL1     -0.0787
     3 C         7.726185   2.989905   -0.827281 C.2        1 UNL1     -0.0649
     4 C         8.542198   4.230602   -1.640392 C.2        1 UNL1     -0.0542
     5 C         9.587543   4.53287   -2.547567 C.2        1 UNL1     0.0115
     6 C         10.811187   3.938738   -3.297918 C.3        1 UNL1     -0.0348
     7 C         9.596502   5.964694   -3.273368 C.2        1 UNL1     0.2441
     8 O         10.32738   6.882176   -2.926137 O.2        1 UNL1     -0.2702
     9 N         8.90089   6.010587   -4.494093 N.am        1 UNL1     -0.2772
     10 C         7.57491   6.309538   -4.280252 C.2        1 UNL1     0.1049
     11 C         6.795715   5.295799   -3.949482 C.2        1 UNL1     0.0801
     12 C         6.070349   7.907564   -3.080275 C.ar        1 UNL1     0.0753
     13 C         5.381213   6.758515   -2.5769 C.ar        1 UNL1     0.0305
     14 C         5.641406   5.419683   -3.101189 C.2        1 UNL1     0.0924
     15 N         7.035332   3.973809   -3.987611 N.pl3        1 UNL1     -0.3170
     16 C         5.802537   3.294978   -3.688179 C.3        1 UNL1     0.1275
     17 N         5.034712   4.268216   -2.827379 N.2        1 UNL1     -0.2557
     18 C         5.022258   3.177627   -4.993971 C.3        1 UNL1     0.0016
     19 C         5.894455   2.471764   -6.019944 C.3        1 UNL1     0.0026
     20 N         6.253332   1.157927   -5.504127 N.3        1 UNL1     -0.3018
     21 C         6.954243   1.164983   -4.21842 C.3        1 UNL1     0.0026
     22 C         6.058217   1.874556   -3.201789 C.3        1 UNL1     0.0016
     23 C         6.826665   0.292373   -6.515439 C.3        1 UNL1     0.0012
     24 C         8.334827   0.552583   -6.655055 C.3        1 UNL1     -0.0339
     25 C         8.801968   0.385524   -8.110365 C.3        1 UNL1     -0.0615
     26 C         8.678295   1.928855   -6.112204 C.3        1 UNL1     -0.0615
     27 C         5.732086   9.192517   -2.662432 C.ar        1 UNL1     0.1347
     28 C         4.700307   9.455482   -1.779069 C.ar        1 UNL1     0.0342
     29 C         4.068162   8.305948   -1.259329 C.ar        1 UNL1     0.1435
     30 C         4.420325   7.010809   -1.641187 C.ar        1 UNL1     0.0774
     31 O         2.973747   8.398328   -0.472736 O.3        1 UNL1     -0.4436
     32 C         2.364475   7.100479   -0.545174 C.3        1 UNL1     0.3143
     33 C         3.484489   6.158434   -0.938028 C.2        1 UNL1     0.2504
     34 C         4.118778   10.809267   -1.480422 C.3        1 UNL1     -0.0327
     35 O         1.965121   6.742614   0.783622 O.2        1 UNL1     -0.4528
     36 C         -1.081105   4.512498   0.389697 C.3        1 UNL1     0.0854
     37 C         -1.23014   3.161646   -0.410623 C.3        1 UNL1     0.0236
     38 C         -1.770403   1.921692   0.450988 C.3        1 UNL1     0.1131
     39 C         -1.080261   1.562621   1.828319 C.3        1 UNL1     0.0200
     40 C         0.582095   1.56451   1.966187 C.3        1 UNL1     0.0661
     41 C         1.666985   0.788842   0.917872 C.3        1 UNL1     0.0091
     42 C         3.369065   1.25014   0.412374 C.3        1 UNL1     0.0661
     43 C         7.097418   7.692161   -4.129556 C.2        1 UNL1     0.2131
     44 O         7.463606   8.560048   -4.901189 O.2        1 UNL1     -0.2851
     45 O         6.48237   10.253092   -3.16611 O.3        1 UNL1     -0.5056
     46 O         3.591005   4.975349   -0.703895 O.2        1 UNL1     -0.2836
     47 C         5.337487   1.900269   2.091796 C.3        1 UNL1     -0.0566
     48 O         3.925753   -0.105778   0.637541 O.3        1 UNL1     -0.3909
     49 C         0.927681   0.385397   -0.338375 C.3        1 UNL1     -0.0577
     50 O         1.057221   2.857389   2.283114 O.3        1 UNL1     -0.3910
     51 O         -1.26959   4.42641   1.784148 O.3        1 UNL1     -0.3753
     52 C         -0.111161   2.998705   -1.49057 C.3        1 UNL1     -0.0564
     53 O         -2.233183   0.765072   -0.385905 O.3        1 UNL1     -0.4608
     54 C         -2.062137   -0.558924   -0.076536 C.2        1 UNL1     0.3042
     55 O         -1.234262   -1.335813   -0.550776 O.2        1 UNL1     -0.2512
     56 C         -2.979421   -1.046305   1.008712 C.3        1 UNL1     0.0332
     57 C         -1.925202   2.267193   2.989278 C.3        1 UNL1     -0.0567
     58 C         1.337392   7.163245   -1.699597 C.3        1 UNL1     0.0210
     59 C         -2.485533   5.000654   2.261215 C.3        1 UNL1     0.0372
     60 C         0.203256   5.232897   0.173824 C.2        1 UNL1     -0.0208
     61 C         1.025823   5.814267   1.047972 C.2        1 UNL1     0.0882
     62 H         4.432417   3.119209   0.582044 H        1 UNL1     0.0365
     63 H         6.047246   4.063037   -0.237556 H        1 UNL1     0.0576
     64 H         8.273195   2.05132   -0.941065 H        1 UNL1     0.0615
     65 H         7.962829   5.12577   -1.398548 H        1 UNL1     0.0622
     66 H         -1.864971   5.164466   -0.020836 H        1 UNL1     0.0645
     67 H         -2.081225   3.344674   -1.089384 H        1 UNL1     0.0362
     68 H         -2.768707   2.302488   0.715386 H        1 UNL1     0.0741
     69 H         -1.338952   0.54594   2.092604 H        1 UNL1     0.0359
     70 H         0.6962   0.98998   2.905312 H        1 UNL1     0.0600
     71 H         1.768947   -0.186735   1.432468 H        1 UNL1     0.0348
     72 H         3.167227   1.805323   1.339924 H        1 UNL1     0.0602
     73 H         0.364428   5.354768   -0.868491 H        1 UNL1     0.0628
     74 H         0.963668   5.69042   2.129654 H        1 UNL1     0.1022
     75 H         11.752252   4.447623   -2.977813 H        1 UNL1     0.0279
     76 H         11.034983   2.89139   -3.10806 H        1 UNL1     0.0279
     77 H         10.799315   4.162313   -4.374753 H        1 UNL1     0.0279
     78 H         8.940514   5.098809   -4.944836 H        1 UNL1     0.1553
     79 H         7.767888   3.556   -4.531422 H        1 UNL1     0.1484
     80 H         4.094609   2.623118   -4.807549 H        1 UNL1     0.0317
     81 H         4.727896   4.165579   -5.364045 H        1 UNL1     0.0317
     82 H         6.791461   3.059349   -6.264967 H        1 UNL1     0.0428
     83 H         5.319516   2.40029   -6.943733 H        1 UNL1     0.0428
     84 H         7.141146   0.164821   -3.815239 H        1 UNL1     0.0428
     85 H         7.955159   1.610712   -4.300941 H        1 UNL1     0.0428
     86 H         6.53995   1.744145   -2.250519 H        1 UNL1     0.0317
     87 H         5.115405   1.326082   -3.08613 H        1 UNL1     0.0317
     88 H         6.679474   -0.748167   -6.197781 H        1 UNL1     0.0429
     89 H         6.313664   0.410226   -7.478619 H        1 UNL1     0.0429
     90 H         8.882069   -0.161669   -6.028491 H        1 UNL1     0.0308
     91 H         8.127716   0.894774   -8.805456 H        1 UNL1     0.0233
     92 H         9.813258   0.778413   -8.238974 H        1 UNL1     0.0233
     93 H         8.841128   -0.666377   -8.418269 H        1 UNL1     0.0233
     94 H         9.698643   2.204494   -6.399865 H        1 UNL1     0.0233
     95 H         7.997028   2.675739   -6.529339 H        1 UNL1     0.0233
     96 H         8.607384   1.956615   -5.021255 H        1 UNL1     0.0233
     97 H         3.05637   10.853967   -1.700699 H        1 UNL1     0.0280
     98 H         4.217457   11.077368   -0.420403 H        1 UNL1     0.0280
     99 H         4.630267   11.573016   -2.088831 H        1 UNL1     0.0280
     100 H         7.404533   10.080281   -3.239421 H        1 UNL1     0.2922
     101 H         6.317661   1.428822   2.160005 H        1 UNL1     0.0236
     102 H         4.570646   1.3265   2.611148 H        1 UNL1     0.0236
     103 H         5.433928   2.831922   2.673961 H        1 UNL1     0.0236
     104 H         3.501206   -0.469568   1.439032 H        1 UNL1     0.2098
     105 H         0.71833   1.206379   -1.019529 H        1 UNL1     0.0234
     106 H         1.371261   -0.450452   -0.879225 H        1 UNL1     0.0234
     107 H         0.0   -0.0   0.0 H        1 UNL1     0.0234
     108 H         2.021466   2.858153   2.128194 H        1 UNL1     0.2098
     109 H         -0.127847   3.809296   -2.232442 H        1 UNL1     0.0234
     110 H         0.892942   2.915905   -1.060843 H        1 UNL1     0.0234
     111 H         -0.233252   2.069444   -2.062858 H        1 UNL1     0.0234
     112 H         -3.992495   -0.670345   0.836427 H        1 UNL1     0.0342
     113 H         -2.974533   -2.132059   1.092135 H        1 UNL1     0.0342
     114 H         -2.626612   -0.637351   1.965502 H        1 UNL1     0.0342
     115 H         -1.946853   1.659957   3.904693 H        1 UNL1     0.0234
     116 H         -1.562379   3.260081   3.262377 H        1 UNL1     0.0234
     117 H         -3.002093   2.348704   2.762113 H        1 UNL1     0.0234
     118 H         0.297172   7.123522   -1.33167 H        1 UNL1     0.0309
     119 H         1.458972   8.046029   -2.335295 H        1 UNL1     0.0309
     120 H         1.402284   6.297343   -2.367511 H        1 UNL1     0.0309
     121 H         -2.32708   5.293374   3.298791 H        1 UNL1     0.0524
     122 H         -2.768639   5.906812   1.700174 H        1 UNL1     0.0524
     123 H         -3.293883   4.277975   2.194896 H        1 UNL1     0.0524
@<TRIPOS>BOND
     1     1     2    1
     2     1    42    1
     3     2     3    2
     4     3     4    1
     5     4     5    2
     6     5     7    1
     7     6    75    1
     8     6    76    1
     9     6    77    1
    10     7     9   am
    11     9    10    1
    12    10    11    2
    13    10    43    1
    14    11    14    1
    15    11    15    1
    16    12    13   ar
    17    12    27   ar
    18    12    43    1
    19    13    14    1
    20    13    30   ar
    21    14    17    2
    22    15    16    1
    23    16    17    1
    24    16    18    1
    25    16    22    1
    26    18    19    1
    27    19    20    1
    28    20    21    1
    29    21    22    1
    30    23    24    1
    31    23    88    1
    32    23    89    1
    33    24    25    1
    34    24    26    1
    35    24    90    1
    36    25    91    1
    37    25    92    1
    38    25    93    1
    39    26    94    1
    40    26    95    1
    41    26    96    1
    42    27    28   ar
    43    28    29   ar
    44    29    30   ar
    45    29    31    1
    46    30    33    1
    47    31    32    1
    48    32    33    1
    49    32    35    1
    50    34    97    1
    51    34    98    1
    52    34    99    1
    53    35    61    1
    54    36    37    1
    55    36    60    1
    56    37    38    1
    57    38    39    1
    58    39    40    1
    59    40    41    1
    60    41    42    1
    61    45   100    1
    62    47   101    1
    63    47   102    1
    64    47   103    1
    65    48   104    1
    66    49   105    1
    67    49   106    1
    68    49   107    1
    69    50   108    1
    70    51    59    1
    71    52   109    1
    72    52   110    1
    73    52   111    1
    74    53    54    1
    75    54    55    2
    76    54    56    1
    77    56   112    1
    78    56   113    1
    79    56   114    1
    80    57   115    1
    81    57   116    1
    82    57   117    1
    83    58   118    1
    84    58   119    1
    85    58   120    1
    86    59   121    1
    87    59   122    1
    88    59   123    1
    89    60    61    2
    90     1    47    1
    91     1    62    1
    92     2    63    1
    93     3    64    1
    94     4    65    1
    95     5     6    1
    96     7     8    2
    97     9    78    1
    98    15    79    1
    99    18    80    1
   100    18    81    1
   101    19    82    1
   102    19    83    1
   103    20    23    1
   104    21    84    1
   105    21    85    1
   106    22    86    1
   107    22    87    1
   108    27    45    1
   109    28    34    1
   110    32    58    1
   111    33    46    2
   112    36    51    1
   113    36    66    1
   114    37    52    1
   115    37    67    1
   116    38    53    1
   117    38    68    1
   118    42    48    1
   119    42    72    1
   120    43    44    2
   121    60    73    1
   122    61    74    1
   123    39    69    1
   124    39    57    1
   125    40    70    1
   126    40    50    1
   127    41    71    1
   128    41    49    1
