@<TRIPOS>MOLECULE
*****
 123 128 0 0 0
SMALL
GASTEIGER

@<TRIPOS>ATOM
     1 C         0.240791   0.025135   4.121505 C.3        1 UNL1     0.0009
     2 C         -0.826349   -0.886829   5.332526 C.2        1 UNL1     -0.0787
     3 C         -1.972323   -0.925525   6.216433 C.2        1 UNL1     -0.0649
     4 C         -2.574999   -2.250232   7.08147 C.2        1 UNL1     -0.0542
     5 C         -3.706088   -2.786032   7.745273 C.2        1 UNL1     0.0115
     6 C         -5.128145   -2.451797   8.273822 C.3        1 UNL1     -0.0348
     7 C         -3.762343   -4.364234   8.033548 C.2        1 UNL1     0.2441
     8 O         -3.53005   -4.848605   9.132616 O.2        1 UNL1     -0.2702
     9 N         -4.348835   -5.129306   7.010395 N.am        1 UNL1     -0.2772
     10 C         -3.401401   -5.497812   6.08309 C.2        1 UNL1     0.1049
     11 C         -3.113133   -4.600894   5.15753 C.2        1 UNL1     0.0801
     12 C         -1.122805   -6.507533   5.869087 C.ar        1 UNL1     0.0753
     13 C         -0.793872   -5.394327   5.03172 C.ar        1 UNL1     0.0305
     14 C         -1.819179   -4.474918   4.543372 C.2        1 UNL1     0.0924
     15 N         -3.741331   -3.456302   4.838462 N.pl3        1 UNL1     -0.3170
     16 C         -3.126841   -2.935397   3.646273 C.3        1 UNL1     0.1275
     17 N         -1.712632   -3.460612   3.689699 N.2        1 UNL1     -0.2557
     18 C         -3.795897   -3.618352   2.457307 C.3        1 UNL1     0.0016
     19 C         -5.295875   -3.385519   2.543576 C.3        1 UNL1     0.0026
     20 N         -5.54792   -1.951152   2.533835 N.3        1 UNL1     -0.3018
     21 C         -4.89414   -1.19773   3.605888 C.3        1 UNL1     0.0026
     22 C         -3.388057   -1.44236   3.497429 C.3        1 UNL1     0.0016
     23 C         -6.942521   -1.625131   2.311483 C.3        1 UNL1     0.0012
     24 C         -7.347099   -1.948157   0.864511 C.3        1 UNL1     -0.0339
     25 C         -8.390118   -0.949747   0.33598 C.3        1 UNL1     -0.0615
     26 C         -6.11546   -1.992237   -0.023128 C.3        1 UNL1     -0.0615
     27 C         -0.160691   -7.447363   6.231268 C.ar        1 UNL1     0.1347
     28 C         1.148774   -7.401633   5.78713 C.ar        1 UNL1     0.0342
     29 C         1.461453   -6.270327   5.00384 C.ar        1 UNL1     0.1435
     30 C         0.51679   -5.301538   4.662842 C.ar        1 UNL1     0.0774
     31 O         2.665376   -6.138411   4.405365 O.3        1 UNL1     -0.4436
     32 C         2.449357   -5.173132   3.364958 C.3        1 UNL1     0.3143
     33 C         1.234208   -4.381832   3.80481 C.2        1 UNL1     0.2504
     34 C         2.165721   -8.500123   5.92583 C.3        1 UNL1     -0.0327
     35 O         3.562994   -4.2716   3.382401 O.2        1 UNL1     -0.4528
     36 C         3.994368   -3.081205   -0.196002 C.3        1 UNL1     0.0854
     37 C         2.956079   -2.357798   -1.137362 C.3        1 UNL1     0.0236
     38 C         3.457205   -0.963474   -1.750939 C.3        1 UNL1     0.1131
     39 C         4.056101   0.145135   -0.794603 C.3        1 UNL1     0.0200
     40 C         3.322013   0.489811   0.66305 C.3        1 UNL1     0.0661
     41 C         1.671541   0.806302   0.894106 C.3        1 UNL1     0.0091
     42 C         0.57936   0.445633   2.323253 C.3        1 UNL1     0.0661
     43 C         -2.542619   -6.677384   6.265999 C.2        1 UNL1     0.2131
     44 O         -3.019273   -7.739545   6.622864 O.2        1 UNL1     -0.2851
     45 O         -0.552774   -8.475317   7.086266 O.3        1 UNL1     -0.5056
     46 O         0.936737   -3.241468   3.527437 O.2        1 UNL1     -0.2836
     47 C         1.1308   1.060699   4.860066 C.3        1 UNL1     -0.0566
     48 O         -0.015682   1.803539   2.356899 O.3        1 UNL1     -0.3909
     49 C         0.9173   0.398117   -0.351687 C.3        1 UNL1     -0.0577
     50 O         3.795647   -0.371457   1.678733 O.3        1 UNL1     -0.3910
     51 O         5.150545   -2.342684   0.128455 O.3        1 UNL1     -0.3753
     52 C         1.48459   -2.572227   -0.653948 C.3        1 UNL1     -0.0564
     53 O         2.619395   -0.475787   -2.89661 O.3        1 UNL1     -0.4608
     54 C         2.297283   0.83271   -3.145624 C.2        1 UNL1     0.3042
     55 O         1.226089   1.394217   -2.919587 O.2        1 UNL1     -0.2512
     56 C         3.436087   1.636204   -3.706193 C.3        1 UNL1     0.0332
     57 C         5.647475   -0.0146   -0.80828 C.3        1 UNL1     -0.0567
     58 C         2.088891   -5.974726   2.092543 C.3        1 UNL1     0.0210
     59 C         6.347577   -2.795288   -0.502521 C.3        1 UNL1     0.0372
     60 C         3.434149   -3.587084   1.086731 C.2        1 UNL1     -0.0208
     61 C         3.911228   -3.507169   2.329612 C.2        1 UNL1     0.0882
     62 H         0.847367   -0.880813   4.003027 H        1 UNL1     0.0365
     63 H         -0.272424   -1.823136   5.427219 H        1 UNL1     0.0576
     64 H         -2.677272   -0.09333   6.276484 H        1 UNL1     0.0615
     65 H         -1.769052   -2.986932   7.024855 H        1 UNL1     0.0622
     66 H         4.305523   -3.971305   -0.760759 H        1 UNL1     0.0645
     67 H         2.92216   -2.994557   -2.038444 H        1 UNL1     0.0362
     68 H         4.307632   -1.321605   -2.35097 H        1 UNL1     0.0741
     69 H         4.027398   1.098186   -1.305757 H        1 UNL1     0.0359
     70 H         3.792138   1.466465   0.88708 H        1 UNL1     0.0600
     71 H         1.670801   1.909676   0.796518 H        1 UNL1     0.0348
     72 H         1.608105   0.403553   2.709555 H        1 UNL1     0.0602
     73 H         2.580405   -4.184617   0.883448 H        1 UNL1     0.0628
     74 H         4.744884   -2.871762   2.630464 H        1 UNL1     0.1022
     75 H         -5.117366   -1.495418   8.850239 H        1 UNL1     0.0279
     76 H         -5.892974   -2.264471   7.52348 H        1 UNL1     0.0279
     77 H         -5.475385   -3.161938   9.038561 H        1 UNL1     0.0279
     78 H         -5.050701   -4.572939   6.526744 H        1 UNL1     0.1553
     79 H         -4.68914   -3.250675   5.095969 H        1 UNL1     0.1484
     80 H         -3.379722   -3.20867   1.529016 H        1 UNL1     0.0317
     81 H         -3.580016   -4.692131   2.45051 H        1 UNL1     0.0317
     82 H         -5.730463   -3.85771   3.436931 H        1 UNL1     0.0428
     83 H         -5.753415   -3.882319   1.687482 H        1 UNL1     0.0428
     84 H         -5.034033   -0.114961   3.529394 H        1 UNL1     0.0428
     85 H         -5.305354   -1.450807   4.592889 H        1 UNL1     0.0428
     86 H         -2.934579   -0.775785   4.207375 H        1 UNL1     0.0317
     87 H         -3.017416   -1.075698   2.5324 H        1 UNL1     0.0317
     88 H         -7.549205   -2.239588   2.989474 H        1 UNL1     0.0429
     89 H         -7.150521   -0.575473   2.555877 H        1 UNL1     0.0429
     90 H         -7.778442   -2.95556   0.828529 H        1 UNL1     0.0308
     91 H         -8.108936   0.081097   0.571351 H        1 UNL1     0.0233
     92 H         -8.508696   -1.051157   -0.745345 H        1 UNL1     0.0233
     93 H         -9.38387   -1.115301   0.769435 H        1 UNL1     0.0233
     94 H         -6.397954   -1.832418   -1.069307 H        1 UNL1     0.0233
     95 H         -5.419885   -1.198442   0.263279 H        1 UNL1     0.0233
     96 H         -5.602858   -2.955247   0.05316 H        1 UNL1     0.0233
     97 H         2.547966   -8.825467   4.962881 H        1 UNL1     0.0280
     98 H         3.042272   -8.18185   6.505154 H        1 UNL1     0.0280
     99 H         1.705627   -9.367962   6.426095 H        1 UNL1     0.0280
     100 H         -1.020675   -8.190935   7.851654 H        1 UNL1     0.2922
     101 H         2.154017   0.690307   4.91918 H        1 UNL1     0.0236
     102 H         0.740406   1.341594   5.837651 H        1 UNL1     0.0236
     103 H         1.208608   2.010487   4.305051 H        1 UNL1     0.0236
     104 H         0.16944   2.228095   1.496403 H        1 UNL1     0.2098
     105 H         0.686917   1.218828   -1.026348 H        1 UNL1     0.0234
     106 H         1.362504   -0.430225   -0.902657 H        1 UNL1     0.0234
     107 H         0.0   -0.0   0.0 H        1 UNL1     0.0234
     108 H         3.185732   -0.288753   2.436976 H        1 UNL1     0.2098
     109 H         1.200655   -3.633823   -0.643629 H        1 UNL1     0.0234
     110 H         1.285477   -2.130116   0.32821 H        1 UNL1     0.0234
     111 H         0.763969   -2.078262   -1.319268 H        1 UNL1     0.0234
     112 H         3.119623   2.672076   -3.861646 H        1 UNL1     0.0342
     113 H         4.321169   1.588822   -3.073556 H        1 UNL1     0.0342
     114 H         3.703752   1.215314   -4.685157 H        1 UNL1     0.0342
     115 H         6.156056   0.954864   -0.715144 H        1 UNL1     0.0234
     116 H         6.035076   -0.665597   -0.022139 H        1 UNL1     0.0234
     117 H         6.045431   -0.372141   -1.773545 H        1 UNL1     0.0234
     118 H         2.889925   -5.930688   1.333984 H        1 UNL1     0.0309
     119 H         1.848031   -7.02244   2.298657 H        1 UNL1     0.0309
     120 H         1.220747   -5.561655   1.567372 H        1 UNL1     0.0309
     121 H         7.185137   -2.499181   0.128486 H        1 UNL1     0.0524
     122 H         6.378743   -3.893091   -0.601993 H        1 UNL1     0.0524
     123 H         6.444747   -2.349052   -1.488181 H        1 UNL1     0.0524
@<TRIPOS>BOND
     1     1     2    1
     2     1    42    1
     3     2     3    2
     4     3     4    1
     5     4     5    2
     6     5     7    1
     7     6    75    1
     8     6    76    1
     9     6    77    1
    10     7     9   am
    11     9    10    1
    12    10    11    2
    13    10    43    1
    14    11    14    1
    15    11    15    1
    16    12    13   ar
    17    12    27   ar
    18    12    43    1
    19    13    14    1
    20    13    30   ar
    21    14    17    2
    22    15    16    1
    23    16    17    1
    24    16    18    1
    25    16    22    1
    26    18    19    1
    27    19    20    1
    28    20    21    1
    29    21    22    1
    30    23    24    1
    31    23    88    1
    32    23    89    1
    33    24    25    1
    34    24    26    1
    35    24    90    1
    36    25    91    1
    37    25    92    1
    38    25    93    1
    39    26    94    1
    40    26    95    1
    41    26    96    1
    42    27    28   ar
    43    28    29   ar
    44    29    30   ar
    45    29    31    1
    46    30    33    1
    47    31    32    1
    48    32    33    1
    49    32    35    1
    50    34    97    1
    51    34    98    1
    52    34    99    1
    53    35    61    1
    54    36    37    1
    55    36    60    1
    56    37    38    1
    57    38    39    1
    58    39    40    1
    59    40    41    1
    60    41    42    1
    61    45   100    1
    62    47   101    1
    63    47   102    1
    64    47   103    1
    65    48   104    1
    66    49   105    1
    67    49   106    1
    68    49   107    1
    69    50   108    1
    70    51    59    1
    71    52   109    1
    72    52   110    1
    73    52   111    1
    74    53    54    1
    75    54    55    2
    76    54    56    1
    77    56   112    1
    78    56   113    1
    79    56   114    1
    80    57   115    1
    81    57   116    1
    82    57   117    1
    83    58   118    1
    84    58   119    1
    85    58   120    1
    86    59   121    1
    87    59   122    1
    88    59   123    1
    89    60    61    2
    90     1    47    1
    91     1    62    1
    92     2    63    1
    93     3    64    1
    94     4    65    1
    95     5     6    1
    96     7     8    2
    97     9    78    1
    98    15    79    1
    99    18    80    1
   100    18    81    1
   101    19    82    1
   102    19    83    1
   103    20    23    1
   104    21    84    1
   105    21    85    1
   106    22    86    1
   107    22    87    1
   108    27    45    1
   109    28    34    1
   110    32    58    1
   111    33    46    2
   112    36    51    1
   113    36    66    1
   114    37    52    1
   115    37    67    1
   116    38    53    1
   117    38    68    1
   118    42    48    1
   119    42    72    1
   120    43    44    2
   121    60    73    1
   122    61    74    1
   123    39    69    1
   124    39    57    1
   125    40    70    1
   126    40    50    1
   127    41    71    1
   128    41    49    1
