@<TRIPOS>MOLECULE
*****
 123 128 0 0 0
SMALL
GASTEIGER

@<TRIPOS>ATOM
     1 C         5.167041   1.749408   0.490436 C.3        1 UNL1     0.0009
     2 C         6.603306   2.556192   -0.360023 C.2        1 UNL1     -0.0787
     3 C         7.884975   2.45856   -1.026234 C.2        1 UNL1     -0.0649
     4 C         8.76196   3.694217   -1.781488 C.2        1 UNL1     -0.0542
     5 C         9.781619   3.987512   -2.720291 C.2        1 UNL1     0.0115
     6 C         10.909628   3.362699   -3.58662 C.3        1 UNL1     -0.0348
     7 C         9.876503   5.471094   -3.326073 C.2        1 UNL1     0.2441
     8 O         10.700377   6.292687   -2.94826 O.2        1 UNL1     -0.2702
     9 N         9.12585   5.678531   -4.49639 N.am        1 UNL1     -0.2772
     10 C         7.843177   6.064837   -4.182003 C.2        1 UNL1     0.1049
     11 C         6.997653   5.093133   -3.890278 C.2        1 UNL1     0.0801
     12 C         6.544993   7.670551   -2.770007 C.ar        1 UNL1     0.0753
     13 C         5.786276   6.542281   -2.322835 C.ar        1 UNL1     0.0305
     14 C         5.903208   5.236929   -2.968926 C.2        1 UNL1     0.0924
     15 N         7.120442   3.764257   -4.050085 N.pl3        1 UNL1     -0.3170
     16 C         5.850789   3.164714   -3.735784 C.3        1 UNL1     0.1275
     17 N         5.214561   4.119343   -2.755161 N.2        1 UNL1     -0.2557
     18 C         4.997503   3.224285   -4.999135 C.3        1 UNL1     0.0016
     19 C         5.752116   2.540894   -6.12835 C.3        1 UNL1     0.0026
     20 N         6.02262   1.162642   -5.743284 N.3        1 UNL1     -0.3018
     21 C         6.786423   1.001745   -4.504299 C.3        1 UNL1     0.0026
     22 C         6.007942   1.691564   -3.382688 C.3        1 UNL1     0.0016
     23 C         6.466887   0.343743   -6.853543 C.3        1 UNL1     0.0012
     24 C         5.311151   0.094574   -7.83535 C.3        1 UNL1     -0.0339
     25 C         5.346295   1.087325   -9.00892 C.3        1 UNL1     -0.0615
     26 C         5.340329   -1.344673   -8.3196 C.3        1 UNL1     -0.0615
     27 C         6.340304   8.937937   -2.229678 C.ar        1 UNL1     0.1347
     28 C         5.381527   9.206836   -1.269214 C.ar        1 UNL1     0.0342
     29 C         4.680312   8.072035   -0.809119 C.ar        1 UNL1     0.1435
     30 C         4.899797   6.790301   -1.315286 C.ar        1 UNL1     0.0774
     31 O         3.639592   8.184995   0.044783 O.3        1 UNL1     -0.4436
     32 C         2.918072   6.952126   -0.097754 C.3        1 UNL1     0.3143
     33 C         3.931354   5.95946   -0.630753 C.2        1 UNL1     0.2504
     34 C         4.93461   10.572643   -0.827695 C.3        1 UNL1     -0.0327
     35 O         2.557961   6.514701   1.218388 O.2        1 UNL1     -0.4528
     36 C         -0.684899   4.582173   0.821797 C.3        1 UNL1     0.0854
     37 C         -0.990303   3.321989   -0.076083 C.3        1 UNL1     0.0236
     38 C         -1.590376   2.060449   0.711428 C.3        1 UNL1     0.1131
     39 C         -0.864079   1.528983   2.012315 C.3        1 UNL1     0.0200
     40 C         0.797152   1.383695   2.052835 C.3        1 UNL1     0.0661
     41 C         1.756244   0.615611   0.883305 C.3        1 UNL1     0.0091
     42 C         3.463575   0.978736   0.31889 C.3        1 UNL1     0.0661
     43 C         7.494681   7.463569   -3.891395 C.2        1 UNL1     0.2131
     44 O         7.894165   8.362073   -4.609616 O.2        1 UNL1     -0.2851
     45 O         7.152239   9.973408   -2.687933 O.3        1 UNL1     -0.5056
     46 O         3.947589   4.755863   -0.500581 O.2        1 UNL1     -0.2836
     47 C         5.563976   1.319281   1.928287 C.3        1 UNL1     -0.0566
     48 O         3.912402   -0.432336   0.399818 O.3        1 UNL1     -0.3909
     49 C         0.921663   0.383498   -0.35649 C.3        1 UNL1     -0.0577
     50 O         1.397285   2.601462   2.446035 O.3        1 UNL1     -0.3910
     51 O         -0.80847   4.391787   2.213169 O.3        1 UNL1     -0.3753
     52 C         0.053776   3.162262   -1.229051 C.3        1 UNL1     -0.0564
     53 O         -2.193121   1.021811   -0.188714 O.3        1 UNL1     -0.4608
     54 C         -2.427196   -0.285148   0.1504 C.2        1 UNL1     0.3042
     55 O         -1.858086   -1.283967   -0.288134 O.2        1 UNL1     -0.2512
     56 C         -3.466812   -0.451494   1.22196 C.3        1 UNL1     0.0332
     57 C         -1.584775   2.197234   3.274144 C.3        1 UNL1     -0.0567
     58 C         1.842456   7.197574   -1.181422 C.3        1 UNL1     0.0210
     59 C         -1.121601   5.570376   2.953941 C.3        1 UNL1     0.0372
     60 C         0.643913   5.211589   0.591024 C.2        1 UNL1     -0.0208
     61 C         1.557082   5.646545   1.460323 C.2        1 UNL1     0.0882
     62 H         4.69099   2.733459   0.578356 H        1 UNL1     0.0365
     63 H         6.336922   3.609896   -0.254107 H        1 UNL1     0.0576
     64 H         8.34271   1.491894   -1.247918 H        1 UNL1     0.0615
     65 H         8.27485   4.609363   -1.434048 H        1 UNL1     0.0622
     66 H         -1.429781   5.328731   0.512204 H        1 UNL1     0.0645
     67 H         -1.856118   3.631512   -0.686918 H        1 UNL1     0.0362
     68 H         -2.537393   2.496997   1.063715 H        1 UNL1     0.0741
     69 H         -1.195367   0.517735   2.207339 H        1 UNL1     0.0359
     70 H         0.909348   0.722951   2.933681 H        1 UNL1     0.0600
     71 H         1.800145   -0.405756   1.309732 H        1 UNL1     0.0348
     72 H         3.357962   1.466444   1.29884 H        1 UNL1     0.0602
     73 H         0.761407   5.409364   -0.445474 H        1 UNL1     0.0628
     74 H         1.539951   5.435355   2.530063 H        1 UNL1     0.1022
     75 H         10.954344   2.257353   -3.434158 H        1 UNL1     0.0279
     76 H         10.795598   3.445995   -4.665104 H        1 UNL1     0.0279
     77 H         11.91477   3.667408   -3.260209 H        1 UNL1     0.0279
     78 H         9.063804   4.808828   -5.021598 H        1 UNL1     0.1553
     79 H         7.785561   3.336675   -4.667923 H        1 UNL1     0.1484
     80 H         4.036371   2.7331   -4.804896 H        1 UNL1     0.0317
     81 H         4.770629   4.261133   -5.269553 H        1 UNL1     0.0317
     82 H         6.682604   3.072468   -6.37641 H        1 UNL1     0.0428
     83 H         5.126636   2.596369   -7.019836 H        1 UNL1     0.0428
     84 H         6.907024   -0.041338   -4.195679 H        1 UNL1     0.0428
     85 H         7.816419   1.369995   -4.608307 H        1 UNL1     0.0428
     86 H         6.524731   1.440844   -2.474912 H        1 UNL1     0.0317
     87 H         5.02862   1.213707   -3.257479 H        1 UNL1     0.0317
     88 H         7.262674   0.885925   -7.380855 H        1 UNL1     0.0429
     89 H         6.899762   -0.602129   -6.50323 H        1 UNL1     0.0429
     90 H         4.358288   0.213237   -7.306025 H        1 UNL1     0.0308
     91 H         6.296908   1.032579   -9.547846 H        1 UNL1     0.0233
     92 H         4.527495   0.89148   -9.705211 H        1 UNL1     0.0233
     93 H         5.22628   2.126786   -8.680359 H        1 UNL1     0.0233
     94 H         4.645563   -1.475849   -9.156217 H        1 UNL1     0.0233
     95 H         6.343752   -1.600241   -8.671439 H        1 UNL1     0.0233
     96 H         5.057797   -2.039325   -7.523608 H        1 UNL1     0.0233
     97 H         4.13944   10.522419   -0.089853 H        1 UNL1     0.0280
     98 H         5.746639   11.141432   -0.356161 H        1 UNL1     0.0280
     99 H         4.563461   11.138663   -1.697732 H        1 UNL1     0.0280
     100 H         6.684983   10.724621   -3.008828 H        1 UNL1     0.2922
     101 H         4.701415   0.885257   2.433528 H        1 UNL1     0.0236
     102 H         6.014832   2.124422   2.507477 H        1 UNL1     0.0236
     103 H         6.320357   0.516737   1.92653 H        1 UNL1     0.0236
     104 H         4.33227   -0.558675   1.273156 H        1 UNL1     0.2098
     105 H         0.708663   1.282569   -0.929302 H        1 UNL1     0.0234
     106 H         1.290946   -0.404148   -1.013126 H        1 UNL1     0.0234
     107 H         0.0   -0.0   0.0 H        1 UNL1     0.0234
     108 H         1.198977   3.259829   1.752498 H        1 UNL1     0.2098
     109 H         1.078766   3.048775   -0.849279 H        1 UNL1     0.0234
     110 H         -0.178774   2.335449   -1.908789 H        1 UNL1     0.0234
     111 H         0.074587   4.045392   -1.881428 H        1 UNL1     0.0234
     112 H         -3.599058   -1.513382   1.450544 H        1 UNL1     0.0342
     113 H         -3.223365   0.11413   2.120096 H        1 UNL1     0.0342
     114 H         -4.421614   -0.068621   0.83605 H        1 UNL1     0.0342
     115 H         -2.663682   1.98982   3.285437 H        1 UNL1     0.0234
     116 H         -1.179228   1.879501   4.236758 H        1 UNL1     0.0234
     117 H         -1.580128   3.300566   3.250097 H        1 UNL1     0.0234
     118 H         0.94145   7.684133   -0.768561 H        1 UNL1     0.0309
     119 H         2.211423   7.786023   -2.027468 H        1 UNL1     0.0309
     120 H         1.453888   6.265753   -1.606663 H        1 UNL1     0.0309
     121 H         -0.300719   6.273744   2.816894 H        1 UNL1     0.0524
     122 H         -2.041609   6.059437   2.592773 H        1 UNL1     0.0524
     123 H         -1.239154   5.332113   4.007272 H        1 UNL1     0.0524
@<TRIPOS>BOND
     1     1     2    1
     2     1    42    1
     3     2     3    2
     4     3     4    1
     5     4     5    2
     6     5     7    1
     7     6    75    1
     8     6    76    1
     9     6    77    1
    10     7     9   am
    11     9    10    1
    12    10    11    2
    13    10    43    1
    14    11    14    1
    15    11    15    1
    16    12    13   ar
    17    12    27   ar
    18    12    43    1
    19    13    14    1
    20    13    30   ar
    21    14    17    2
    22    15    16    1
    23    16    17    1
    24    16    18    1
    25    16    22    1
    26    18    19    1
    27    19    20    1
    28    20    21    1
    29    21    22    1
    30    23    24    1
    31    23    88    1
    32    23    89    1
    33    24    25    1
    34    24    26    1
    35    24    90    1
    36    25    91    1
    37    25    92    1
    38    25    93    1
    39    26    94    1
    40    26    95    1
    41    26    96    1
    42    27    28   ar
    43    28    29   ar
    44    29    30   ar
    45    29    31    1
    46    30    33    1
    47    31    32    1
    48    32    33    1
    49    32    35    1
    50    34    97    1
    51    34    98    1
    52    34    99    1
    53    35    61    1
    54    36    37    1
    55    36    60    1
    56    37    38    1
    57    38    39    1
    58    39    40    1
    59    40    41    1
    60    41    42    1
    61    45   100    1
    62    47   101    1
    63    47   102    1
    64    47   103    1
    65    48   104    1
    66    49   105    1
    67    49   106    1
    68    49   107    1
    69    50   108    1
    70    51    59    1
    71    52   109    1
    72    52   110    1
    73    52   111    1
    74    53    54    1
    75    54    55    2
    76    54    56    1
    77    56   112    1
    78    56   113    1
    79    56   114    1
    80    57   115    1
    81    57   116    1
    82    57   117    1
    83    58   118    1
    84    58   119    1
    85    58   120    1
    86    59   121    1
    87    59   122    1
    88    59   123    1
    89    60    61    2
    90     1    47    1
    91     1    62    1
    92     2    63    1
    93     3    64    1
    94     4    65    1
    95     5     6    1
    96     7     8    2
    97     9    78    1
    98    15    79    1
    99    18    80    1
   100    18    81    1
   101    19    82    1
   102    19    83    1
   103    20    23    1
   104    21    84    1
   105    21    85    1
   106    22    86    1
   107    22    87    1
   108    27    45    1
   109    28    34    1
   110    32    58    1
   111    33    46    2
   112    36    51    1
   113    36    66    1
   114    37    52    1
   115    37    67    1
   116    38    53    1
   117    38    68    1
   118    42    48    1
   119    42    72    1
   120    43    44    2
   121    60    73    1
   122    61    74    1
   123    39    69    1
   124    39    57    1
   125    40    70    1
   126    40    50    1
   127    41    71    1
   128    41    49    1
