@<TRIPOS>MOLECULE
*****
 123 128 0 0 0
SMALL
GASTEIGER

@<TRIPOS>ATOM
     1 C         5.167961   1.74775   0.486639 C.3        1 UNL1     0.0009
     2 C         6.604216   2.553104   -0.36519 C.2        1 UNL1     -0.0787
     3 C         7.885577   2.454288   -1.031821 C.2        1 UNL1     -0.0649
     4 C         8.762768   3.688839   -1.78864 C.2        1 UNL1     -0.0542
     5 C         9.78217   3.980791   -2.728141 C.2        1 UNL1     0.0115
     6 C         10.909572   3.35466   -3.59431 C.3        1 UNL1     -0.0348
     7 C         9.877424   5.463737   -3.335417 C.2        1 UNL1     0.2441
     8 O         10.701789   6.28536   -2.958742 O.2        1 UNL1     -0.2702
     9 N         9.126386   5.670337   -4.505635 N.am        1 UNL1     -0.2772
     10 C         7.843999   6.057482   -4.191112 C.2        1 UNL1     0.1049
     11 C         6.998191   5.086415   -3.898092 C.2        1 UNL1     0.0801
     12 C         6.547048   7.665119   -2.78017 C.ar        1 UNL1     0.0753
     13 C         5.788045   6.537602   -2.331586 C.ar        1 UNL1     0.0305
     14 C         5.904176   5.231568   -2.976442 C.2        1 UNL1     0.0924
     15 N         7.120366   3.757332   -4.056644 N.pl3        1 UNL1     -0.3170
     16 C         5.850592   3.158624   -3.741244 C.3        1 UNL1     0.1275
     17 N         5.215154   4.114478   -2.761303 N.2        1 UNL1     -0.2557
     18 C         4.996822   3.217307   -5.004309 C.3        1 UNL1     0.0016
     19 C         5.750697   2.532496   -6.133156 C.3        1 UNL1     0.0026
     20 N         6.020786   1.15451   -5.746846 N.3        1 UNL1     -0.3018
     21 C         6.785022   0.994514   -4.508011 C.3        1 UNL1     0.0026
     22 C         6.007278   1.685755   -3.386764 C.3        1 UNL1     0.0016
     23 C         6.464268   0.334339   -6.856479 C.3        1 UNL1     0.0012
     24 C         5.308033   0.084684   -7.837576 C.3        1 UNL1     -0.0339
     25 C         5.382985   1.030505   -9.047477 C.3        1 UNL1     -0.0615
     26 C         5.294666   -1.372131   -8.266869 C.3        1 UNL1     -0.0615
     27 C         6.343101   8.933118   -2.241003 C.ar        1 UNL1     0.1347
     28 C         5.384822   9.203358   -1.280419 C.ar        1 UNL1     0.0342
     29 C         4.683323   8.069299   -0.818928 C.ar        1 UNL1     0.1435
     30 C         4.902074   6.786978   -1.323924 C.ar        1 UNL1     0.0774
     31 O         3.642994   8.183528   0.035282 O.3        1 UNL1     -0.4436
     32 C         2.920907   6.950819   -0.105755 C.3        1 UNL1     0.3143
     33 C         3.933563   5.95721   -0.638186 C.2        1 UNL1     0.2504
     34 C         4.938648   10.569782   -0.840061 C.3        1 UNL1     -0.0327
     35 O         2.561145   6.514835   1.210962 O.2        1 UNL1     -0.4528
     36 C         -0.682673   4.58326   0.817573 C.3        1 UNL1     0.0854
     37 C         -0.98896   3.322322   -0.078946 C.3        1 UNL1     0.0236
     38 C         -1.589237   2.061804   0.710045 C.3        1 UNL1     0.1131
     39 C         -0.862636   1.531315   2.01116 C.3        1 UNL1     0.0200
     40 C         0.798551   1.385379   2.051154 C.3        1 UNL1     0.0661
     41 C         1.756854   0.615751   0.881993 C.3        1 UNL1     0.0091
     42 C         3.464108   0.977614   0.316535 C.3        1 UNL1     0.0661
     43 C         7.496199   7.456643   -3.901737 C.2        1 UNL1     0.2131
     44 O         7.895765   8.354275   -4.621 O.2        1 UNL1     -0.2851
     45 O         7.155279   9.967804   -2.700602 O.3        1 UNL1     -0.5056
     46 O         3.949353   4.753735   -0.506839 O.2        1 UNL1     -0.2836
     47 C         5.565297   1.318871   1.924752 C.3        1 UNL1     -0.0566
     48 O         3.912384   -0.433562   0.398667 O.3        1 UNL1     -0.3909
     49 C         0.921678   0.382766   -0.357238 C.3        1 UNL1     -0.0577
     50 O         1.399346   2.603283   2.442917 O.3        1 UNL1     -0.3910
     51 O         -0.805762   4.394292   2.209181 O.3        1 UNL1     -0.3753
     52 C         0.054588   3.161032   -1.232177 C.3        1 UNL1     -0.0564
     53 O         -2.192774   1.022533   -0.188834 O.3        1 UNL1     -0.4608
     54 C         -2.427253   -0.283995   0.151656 C.2        1 UNL1     0.3042
     55 O         -1.857712   -1.283378   -0.285031 O.2        1 UNL1     -0.2512
     56 C         -3.46801   -0.448974   1.22232 C.3        1 UNL1     0.0332
     57 C         -1.582547   2.201103   3.272622 C.3        1 UNL1     -0.0567
     58 C         1.844956   7.195648   -1.18923 C.3        1 UNL1     0.0210
     59 C         -1.118108   5.573736   2.948922 C.3        1 UNL1     0.0372
     60 C         0.646306   5.2119   0.585648 C.2        1 UNL1     -0.0208
     61 C         1.560005   5.64733   1.454152 C.2        1 UNL1     0.0882
     62 H         4.692352   2.732084   0.573784 H        1 UNL1     0.0365
     63 H         6.338312   3.607021   -0.260201 H        1 UNL1     0.0576
     64 H         8.342823   1.487216   -1.25274 H        1 UNL1     0.0615
     65 H         8.276176   4.604528   -1.441903 H        1 UNL1     0.0622
     66 H         -1.427371   5.329822   0.507547 H        1 UNL1     0.0645
     67 H         -1.854893   3.631604   -0.689736 H        1 UNL1     0.0362
     68 H         -2.535931   2.49909   1.062284 H        1 UNL1     0.0741
     69 H         -1.194263   0.520396   2.20731 H        1 UNL1     0.0359
     70 H         0.910829   0.725454   2.932604 H        1 UNL1     0.0600
     71 H         1.800505   -0.405215   1.309405 H        1 UNL1     0.0348
     72 H         3.359091   1.466329   1.296048 H        1 UNL1     0.0602
     73 H         0.763464   5.408609   -0.451091 H        1 UNL1     0.0628
     74 H         1.543218   5.437199   2.524105 H        1 UNL1     0.1022
     75 H         10.935264   2.246049   -3.462572 H        1 UNL1     0.0279
     76 H         10.808587   3.460209   -4.672146 H        1 UNL1     0.0279
     77 H         11.91577   3.637091   -3.251528 H        1 UNL1     0.0279
     78 H         9.063768   4.800144   -5.029964 H        1 UNL1     0.1553
     79 H         7.78506   3.328869   -4.674329 H        1 UNL1     0.1484
     80 H         4.035565   2.726711   -4.809201 H        1 UNL1     0.0317
     81 H         4.770268   4.253983   -5.275654 H        1 UNL1     0.0317
     82 H         6.681305   3.063441   -6.382113 H        1 UNL1     0.0428
     83 H         5.124881   2.587354   -7.024445 H        1 UNL1     0.0428
     84 H         6.905315   -0.048315   -4.198416 H        1 UNL1     0.0428
     85 H         7.815128   1.362236   -4.612795 H        1 UNL1     0.0428
     86 H         6.524329   1.435713   -2.478951 H        1 UNL1     0.0317
     87 H         5.027809   1.208427   -3.260693 H        1 UNL1     0.0317
     88 H         7.260066   0.875673   -7.384643 H        1 UNL1     0.0429
     89 H         6.896892   -0.611368   -6.505412 H        1 UNL1     0.0429
     90 H         4.355779   0.253435   -7.320906 H        1 UNL1     0.0308
     91 H         6.337581   0.929745   -9.572544 H        1 UNL1     0.0233
     92 H         4.566807   0.830155   -9.745562 H        1 UNL1     0.0233
     93 H         5.287721   2.084617   -8.760062 H        1 UNL1     0.0233
     94 H         4.601909   -1.512987   -9.103578 H        1 UNL1     0.0233
     95 H         6.291852   -1.672472   -8.600603 H        1 UNL1     0.0233
     96 H         4.984592   -2.026751   -7.447542 H        1 UNL1     0.0233
     97 H         4.139561   10.520703   -0.106384 H        1 UNL1     0.0280
     98 H         5.749482   11.136377   -0.363853 H        1 UNL1     0.0280
     99 H         4.573258   11.137349   -1.711527 H        1 UNL1     0.0280
     100 H         6.688204   10.718895   -3.022046 H        1 UNL1     0.2922
     101 H         4.699624   0.897119   2.435038 H        1 UNL1     0.0236
     102 H         6.027811   2.121008   2.498895 H        1 UNL1     0.0236
     103 H         6.312166   0.507465   1.923466 H        1 UNL1     0.0236
     104 H         3.986224   -0.664968   1.345224 H        1 UNL1     0.2098
     105 H         0.708818   1.281363   -0.930846 H        1 UNL1     0.0234
     106 H         1.290371   -0.405677   -1.013248 H        1 UNL1     0.0234
     107 H         0.0   -0.0   0.0 H        1 UNL1     0.0234
     108 H         1.215449   3.256564   1.740654 H        1 UNL1     0.2098
     109 H         1.081136   3.059883   -0.853125 H        1 UNL1     0.0234
     110 H         -0.171909   2.326038   -1.903911 H        1 UNL1     0.0234
     111 H         0.066707   4.038281   -1.892656 H        1 UNL1     0.0234
     112 H         -3.591429   -1.509687   1.461072 H        1 UNL1     0.0342
     113 H         -3.231799   0.127616   2.115401 H        1 UNL1     0.0342
     114 H         -4.4252   -0.078405   0.830363 H        1 UNL1     0.0342
     115 H         -2.652203   1.953111   3.311667 H        1 UNL1     0.0234
     116 H         -1.145426   1.921718   4.233309 H        1 UNL1     0.0234
     117 H         -1.62091   3.302944   3.223468 H        1 UNL1     0.0234
     118 H         0.943695   7.681576   -0.776183 H        1 UNL1     0.0309
     119 H         2.213399   7.784413   -2.035285 H        1 UNL1     0.0309
     120 H         1.456936   6.263607   -1.614488 H        1 UNL1     0.0309
     121 H         -0.279982   6.261782   2.841708 H        1 UNL1     0.0524
     122 H         -2.017173   6.083192   2.563988 H        1 UNL1     0.0524
     123 H         -1.271892   5.330676   3.996474 H        1 UNL1     0.0524
@<TRIPOS>BOND
     1     1     2    1
     2     1    42    1
     3     2     3    2
     4     3     4    1
     5     4     5    2
     6     5     7    1
     7     6    75    1
     8     6    76    1
     9     6    77    1
    10     7     9   am
    11     9    10    1
    12    10    11    2
    13    10    43    1
    14    11    14    1
    15    11    15    1
    16    12    13   ar
    17    12    27   ar
    18    12    43    1
    19    13    14    1
    20    13    30   ar
    21    14    17    2
    22    15    16    1
    23    16    17    1
    24    16    18    1
    25    16    22    1
    26    18    19    1
    27    19    20    1
    28    20    21    1
    29    21    22    1
    30    23    24    1
    31    23    88    1
    32    23    89    1
    33    24    25    1
    34    24    26    1
    35    24    90    1
    36    25    91    1
    37    25    92    1
    38    25    93    1
    39    26    94    1
    40    26    95    1
    41    26    96    1
    42    27    28   ar
    43    28    29   ar
    44    29    30   ar
    45    29    31    1
    46    30    33    1
    47    31    32    1
    48    32    33    1
    49    32    35    1
    50    34    97    1
    51    34    98    1
    52    34    99    1
    53    35    61    1
    54    36    37    1
    55    36    60    1
    56    37    38    1
    57    38    39    1
    58    39    40    1
    59    40    41    1
    60    41    42    1
    61    45   100    1
    62    47   101    1
    63    47   102    1
    64    47   103    1
    65    48   104    1
    66    49   105    1
    67    49   106    1
    68    49   107    1
    69    50   108    1
    70    51    59    1
    71    52   109    1
    72    52   110    1
    73    52   111    1
    74    53    54    1
    75    54    55    2
    76    54    56    1
    77    56   112    1
    78    56   113    1
    79    56   114    1
    80    57   115    1
    81    57   116    1
    82    57   117    1
    83    58   118    1
    84    58   119    1
    85    58   120    1
    86    59   121    1
    87    59   122    1
    88    59   123    1
    89    60    61    2
    90     1    47    1
    91     1    62    1
    92     2    63    1
    93     3    64    1
    94     4    65    1
    95     5     6    1
    96     7     8    2
    97     9    78    1
    98    15    79    1
    99    18    80    1
   100    18    81    1
   101    19    82    1
   102    19    83    1
   103    20    23    1
   104    21    84    1
   105    21    85    1
   106    22    86    1
   107    22    87    1
   108    27    45    1
   109    28    34    1
   110    32    58    1
   111    33    46    2
   112    36    51    1
   113    36    66    1
   114    37    52    1
   115    37    67    1
   116    38    53    1
   117    38    68    1
   118    42    48    1
   119    42    72    1
   120    43    44    2
   121    60    73    1
   122    61    74    1
   123    39    69    1
   124    39    57    1
   125    40    70    1
   126    40    50    1
   127    41    71    1
   128    41    49    1
