@<TRIPOS>MOLECULE
*****
 123 128 0 0 0
SMALL
GASTEIGER

@<TRIPOS>ATOM
     1 C         2.512602   -4.734028   1.023339 C.3        1 UNL1     0.0009
     2 C         2.260361   -6.507787   1.499983 C.2        1 UNL1     -0.0787
     3 C         2.348546   -7.56981   2.479972 C.2        1 UNL1     -0.0649
     4 C         1.783981   -9.160183   2.344559 C.2        1 UNL1     -0.0542
     5 C         1.407815   -10.323562   3.060189 C.2        1 UNL1     0.0115
     6 C         1.408993   -10.991385   4.462806 C.3        1 UNL1     -0.0348
     7 C         0.52176   -11.438651   2.3196 C.2        1 UNL1     0.2441
     8 O         0.991352   -12.481654   1.885833 O.2        1 UNL1     -0.2702
     9 N         -0.867696   -11.258114   2.433479 N.am        1 UNL1     -0.2772
     10 C         -1.331645   -10.450702   1.420484 C.2        1 UNL1     0.1049
     11 C         -1.212833   -9.149476   1.612619 C.2        1 UNL1     0.0801
     12 C         -1.245148   -10.131461   -1.05902 C.ar        1 UNL1     0.0753
     13 C         -0.910646   -8.765519   -0.792708 C.ar        1 UNL1     0.0305
     14 C         -1.013257   -8.200594   0.550937 C.2        1 UNL1     0.0924
     15 N         -0.902494   -8.465674   2.727353 N.pl3        1 UNL1     -0.3170
     16 C         -1.07526   -7.065194   2.446171 C.3        1 UNL1     0.1275
     17 N         -0.841956   -6.946642   0.959821 N.2        1 UNL1     -0.2557
     18 C         -2.548184   -6.737184   2.671129 C.3        1 UNL1     0.0016
     19 C         -2.926579   -7.144745   4.086155 C.3        1 UNL1     0.0026
     20 N         -2.079421   -6.420767   5.023816 N.3        1 UNL1     -0.3018
     21 C         -0.640178   -6.624366   4.846346 C.3        1 UNL1     0.0026
     22 C         -0.281355   -6.204329   3.419913 C.3        1 UNL1     0.0016
     23 C         -2.551238   -6.505721   6.391593 C.3        1 UNL1     0.0012
     24 C         -3.986343   -7.053897   6.433246 C.3        1 UNL1     -0.0339
     25 C         -4.427286   -7.366729   7.872607 C.3        1 UNL1     -0.0615
     26 C         -4.935622   -6.080102   5.756952 C.3        1 UNL1     -0.0615
     27 C         -1.261226   -10.630268   -2.359424 C.ar        1 UNL1     0.1347
     28 C         -1.00054   -9.852083   -3.473211 C.ar        1 UNL1     0.0342
     29 C         -0.625949   -8.522883   -3.183256 C.ar        1 UNL1     0.1435
     30 C         -0.570314   -8.018874   -1.883217 C.ar        1 UNL1     0.0774
     31 O         -0.447727   -7.611017   -4.163941 O.3        1 UNL1     -0.4436
     32 C         -0.554342   -6.341427   -3.50239 C.3        1 UNL1     0.3143
     33 C         -0.22516   -6.62254   -2.05021 C.2        1 UNL1     0.2504
     34 C         -1.242799   -10.249426   -4.902731 C.3        1 UNL1     -0.0327
     35 O         0.491697   -5.505814   -4.013081 O.2        1 UNL1     -0.4528
     36 C         -0.828379   -1.952082   -3.822089 C.3        1 UNL1     0.0854
     37 C         -1.354744   -1.150729   -2.569773 C.3        1 UNL1     0.0236
     38 C         -0.623595   0.252587   -2.309258 C.3        1 UNL1     0.1131
     39 C         0.956207   0.317963   -2.262104 C.3        1 UNL1     0.0200
     40 C         1.825773   -0.844597   -1.440674 C.3        1 UNL1     0.0661
     41 C         1.536152   -1.364543   0.147843 C.3        1 UNL1     0.0091
     42 C         1.778994   -3.008551   0.924803 C.3        1 UNL1     0.0661
     43 C         -1.661559   -10.976668   0.087491 C.2        1 UNL1     0.2131
     44 O         -2.326141   -11.99022   -0.029897 O.2        1 UNL1     -0.2851
     45 O         -1.552656   -11.982315   -2.528173 O.3        1 UNL1     -0.5056
     46 O         0.238556   -5.869553   -1.223269 O.2        1 UNL1     -0.2836
     47 C         4.019298   -4.450041   0.780024 C.3        1 UNL1     -0.0566
     48 O         2.468598   -2.467938   2.121173 O.3        1 UNL1     -0.3909
     49 C         0.176038   -0.867049   0.583829 C.3        1 UNL1     -0.0577
     50 O         2.086653   -1.956694   -2.273084 O.3        1 UNL1     -0.3910
     51 O         0.321684   -1.430192   -4.448521 O.3        1 UNL1     -0.3753
     52 C         -1.7659   -2.103535   -1.400131 C.3        1 UNL1     -0.0564
     53 O         -1.357997   1.143545   -1.350524 O.3        1 UNL1     -0.4608
     54 C         -0.822264   2.223779   -0.699358 C.2        1 UNL1     0.3042
     55 O         0.369637   2.480972   -0.534855 O.2        1 UNL1     -0.2512
     56 C         -1.852348   3.196533   -0.19997 C.3        1 UNL1     0.0332
     57 C         1.465186   0.738756   -3.718829 C.3        1 UNL1     -0.0567
     58 C         -2.038226   -5.918155   -3.604652 C.3        1 UNL1     0.0210
     59 C         1.293523   -2.404665   -4.82508 C.3        1 UNL1     0.0372
     60 C         -0.566694   -3.39701   -3.579467 C.2        1 UNL1     -0.0208
     61 C         0.465024   -4.161194   -3.940474 C.2        1 UNL1     0.0882
     62 H         2.073498   -4.954985   0.042994 H        1 UNL1     0.0365
     63 H         1.916253   -6.926404   0.551922 H        1 UNL1     0.0576
     64 H         2.662919   -7.375553   3.507854 H        1 UNL1     0.0615
     65 H         1.574773   -9.272469   1.27727 H        1 UNL1     0.0622
     66 H         -1.65702   -1.912849   -4.543104 H        1 UNL1     0.0645
     67 H         -2.364691   -0.819917   -2.868318 H        1 UNL1     0.0362
     68 H         -0.910213   0.783073   -3.230104 H        1 UNL1     0.0741
     69 H         1.252011   1.231524   -1.763793 H        1 UNL1     0.0359
     70 H         2.801051   -0.328283   -1.355152 H        1 UNL1     0.0600
     71 H         2.206134   -0.677639   0.701237 H        1 UNL1     0.0348
     72 H         2.400333   -3.007188   0.017471 H        1 UNL1     0.0602
     73 H         -1.427447   -3.839313   -3.142752 H        1 UNL1     0.0628
     74 H         1.405195   -3.779393   -4.339905 H        1 UNL1     0.1022
     75 H         1.803352   -10.285299   5.232844 H        1 UNL1     0.0279
     76 H         0.43848   -11.264754   4.870779 H        1 UNL1     0.0279
     77 H         2.128913   -11.819404   4.538968 H        1 UNL1     0.0279
     78 H         -1.081535   -10.796759   3.315239 H        1 UNL1     0.1553
     79 H         -0.973457   -8.847234   3.652723 H        1 UNL1     0.1484
     80 H         -2.704413   -5.663971   2.508117 H        1 UNL1     0.0317
     81 H         -3.180688   -7.259774   1.945532 H        1 UNL1     0.0317
     82 H         -2.841315   -8.231465   4.233401 H        1 UNL1     0.0428
     83 H         -3.980999   -6.903781   4.224664 H        1 UNL1     0.0428
     84 H         -0.024976   -6.008767   5.509955 H        1 UNL1     0.0428
     85 H         -0.340651   -7.654428   5.084194 H        1 UNL1     0.0428
     86 H         0.791079   -6.239756   3.368753 H        1 UNL1     0.0317
     87 H         -0.507389   -5.140929   3.274359 H        1 UNL1     0.0317
     88 H         -1.896543   -7.198511   6.936305 H        1 UNL1     0.0429
     89 H         -2.48362   -5.534151   6.897808 H        1 UNL1     0.0429
     90 H         -4.035239   -7.977592   5.844509 H        1 UNL1     0.0308
     91 H         -3.74362   -8.072766   8.353455 H        1 UNL1     0.0233
     92 H         -4.476529   -6.452573   8.468849 H        1 UNL1     0.0233
     93 H         -5.427889   -7.813751   7.915034 H        1 UNL1     0.0233
     94 H         -4.463808   -5.095981   5.663496 H        1 UNL1     0.0233
     95 H         -5.179787   -6.433764   4.751333 H        1 UNL1     0.0233
     96 H         -5.862628   -5.966276   6.325873 H        1 UNL1     0.0233
     97 H         -0.328548   -10.240517   -5.488645 H        1 UNL1     0.0280
     98 H         -1.643764   -11.267955   -4.986882 H        1 UNL1     0.0280
     99 H         -1.956308   -9.54775   -5.364956 H        1 UNL1     0.0280
     100 H         -2.079967   -12.177968   -3.282683 H        1 UNL1     0.2922
     101 H         4.130856   -3.550703   0.174712 H        1 UNL1     0.0236
     102 H         4.552034   -5.299091   0.35307 H        1 UNL1     0.0236
     103 H         4.554895   -4.224729   1.717341 H        1 UNL1     0.0236
     104 H         2.027081   -2.840206   2.909494 H        1 UNL1     0.2098
     105 H         -0.637616   -1.563783   0.39852 H        1 UNL1     0.0234
     106 H         0.132685   -0.499661   1.609048 H        1 UNL1     0.0234
     107 H         0.0   0.0   0.0 H        1 UNL1     0.0234
     108 H         2.334168   -1.609641   -3.151752 H        1 UNL1     0.2098
     109 H         -1.85997   -1.571103   -0.443377 H        1 UNL1     0.0234
     110 H         -2.687537   -2.659937   -1.601987 H        1 UNL1     0.0234
     111 H         -1.01393   -2.886014   -1.23216 H        1 UNL1     0.0234
     112 H         -1.573341   3.555797   0.795233 H        1 UNL1     0.0342
     113 H         -1.998737   4.02743   -0.888464 H        1 UNL1     0.0342
     114 H         -2.810242   2.665931   -0.110166 H        1 UNL1     0.0342
     115 H         1.976209   -0.089931   -4.228064 H        1 UNL1     0.0234
     116 H         0.672441   1.092246   -4.381134 H        1 UNL1     0.0234
     117 H         2.261556   1.502617   -3.702935 H        1 UNL1     0.0234
     118 H         -2.162245   -4.822883   -3.541362 H        1 UNL1     0.0309
     119 H         -2.527091   -6.281996   -4.513955 H        1 UNL1     0.0309
     120 H         -2.63983   -6.289231   -2.767704 H        1 UNL1     0.0309
     121 H         1.979097   -1.932082   -5.527939 H        1 UNL1     0.0524
     122 H         1.888829   -2.75562   -3.965732 H        1 UNL1     0.0524
     123 H         0.809027   -3.258317   -5.290522 H        1 UNL1     0.0524
@<TRIPOS>BOND
     1     1     2    1
     2     1    42    1
     3     2     3    2
     4     3     4    1
     5     4     5    2
     6     5     7    1
     7     6    75    1
     8     6    76    1
     9     6    77    1
    10     7     9   am
    11     9    10    1
    12    10    11    2
    13    10    43    1
    14    11    14    1
    15    11    15    1
    16    12    13   ar
    17    12    27   ar
    18    12    43    1
    19    13    14    1
    20    13    30   ar
    21    14    17    2
    22    15    16    1
    23    16    17    1
    24    16    18    1
    25    16    22    1
    26    18    19    1
    27    19    20    1
    28    20    21    1
    29    21    22    1
    30    23    24    1
    31    23    88    1
    32    23    89    1
    33    24    25    1
    34    24    26    1
    35    24    90    1
    36    25    91    1
    37    25    92    1
    38    25    93    1
    39    26    94    1
    40    26    95    1
    41    26    96    1
    42    27    28   ar
    43    28    29   ar
    44    29    30   ar
    45    29    31    1
    46    30    33    1
    47    31    32    1
    48    32    33    1
    49    32    35    1
    50    34    97    1
    51    34    98    1
    52    34    99    1
    53    35    61    1
    54    36    37    1
    55    36    60    1
    56    37    38    1
    57    38    39    1
    58    39    40    1
    59    40    41    1
    60    41    42    1
    61    45   100    1
    62    47   101    1
    63    47   102    1
    64    47   103    1
    65    48   104    1
    66    49   105    1
    67    49   106    1
    68    49   107    1
    69    50   108    1
    70    51    59    1
    71    52   109    1
    72    52   110    1
    73    52   111    1
    74    53    54    1
    75    54    55    2
    76    54    56    1
    77    56   112    1
    78    56   113    1
    79    56   114    1
    80    57   115    1
    81    57   116    1
    82    57   117    1
    83    58   118    1
    84    58   119    1
    85    58   120    1
    86    59   121    1
    87    59   122    1
    88    59   123    1
    89    60    61    2
    90     1    47    1
    91     1    62    1
    92     2    63    1
    93     3    64    1
    94     4    65    1
    95     5     6    1
    96     7     8    2
    97     9    78    1
    98    15    79    1
    99    18    80    1
   100    18    81    1
   101    19    82    1
   102    19    83    1
   103    20    23    1
   104    21    84    1
   105    21    85    1
   106    22    86    1
   107    22    87    1
   108    27    45    1
   109    28    34    1
   110    32    58    1
   111    33    46    2
   112    36    51    1
   113    36    66    1
   114    37    52    1
   115    37    67    1
   116    38    53    1
   117    38    68    1
   118    42    48    1
   119    42    72    1
   120    43    44    2
   121    60    73    1
   122    61    74    1
   123    39    69    1
   124    39    57    1
   125    40    70    1
   126    40    50    1
   127    41    71    1
   128    41    49    1
