@<TRIPOS>MOLECULE
*****
 123 128 0 0 0
SMALL
GASTEIGER

@<TRIPOS>ATOM
     1 C         -2.056999   -3.027174   -2.184112 C.3        1 UNL1     0.0009
     2 C         -2.601578   -4.727349   -1.684237 C.2        1 UNL1     -0.0787
     3 C         -2.323206   -6.139042   -1.523987 C.2        1 UNL1     -0.0649
     4 C         -3.310446   -7.321061   -0.820748 C.2        1 UNL1     -0.0542
     5 C         -3.339276   -8.608119   -0.229369 C.2        1 UNL1     0.0115
     6 C         -2.500715   -9.88902   0.034126 C.3        1 UNL1     -0.0348
     7 C         -4.610431   -9.027615   0.656734 C.2        1 UNL1     0.2441
     8 O         -5.496787   -9.762239   0.242937 O.2        1 UNL1     -0.2702
     9 N         -4.507724   -8.708821   2.022008 N.am        1 UNL1     -0.2772
     10 C         -4.971997   -7.434442   2.253804 C.2        1 UNL1     0.1049
     11 C         -4.117188   -6.453442   2.02761 C.2        1 UNL1     0.0801
     12 C         -6.90164   -5.911494   1.790725 C.ar        1 UNL1     0.0753
     13 C         -5.9361   -4.948648   1.355674 C.ar        1 UNL1     0.0305
     14 C         -4.505951   -5.142013   1.584444 C.2        1 UNL1     0.0924
     15 N         -2.792287   -6.4962   1.805492 N.pl3        1 UNL1     -0.3170
     16 C         -2.305379   -5.142337   1.790298 C.3        1 UNL1     0.1275
     17 N         -3.488806   -4.320199   1.341617 N.2        1 UNL1     -0.2557
     18 C         -2.036244   -4.742342   3.237804 C.3        1 UNL1     0.0016
     19 C         -1.074562   -5.748531   3.849637 C.3        1 UNL1     0.0026
     20 N         0.155591   -5.753637   3.07007 N.3        1 UNL1     -0.3018
     21 C         -0.009998   -6.067441   1.649339 C.3        1 UNL1     0.0026
     22 C         -0.976044   -5.041726   1.053892 C.3        1 UNL1     0.0016
     23 C         1.240869   -6.448246   3.733647 C.3        1 UNL1     0.0012
     24 C         2.499134   -5.566865   3.77478 C.3        1 UNL1     -0.0339
     25 C         3.517225   -6.087713   4.802528 C.3        1 UNL1     -0.0615
     26 C         3.108307   -5.463728   2.387317 C.3        1 UNL1     -0.0615
     27 C         -8.267932   -5.665233   1.677942 C.ar        1 UNL1     0.1347
     28 C         -8.786742   -4.481141   1.185181 C.ar        1 UNL1     0.0342
     29 C         -7.817906   -3.567877   0.717775 C.ar        1 UNL1     0.1435
     30 C         -6.446661   -3.815954   0.79101 C.ar        1 UNL1     0.0774
     31 O         -8.158799   -2.325647   0.310758 O.3        1 UNL1     -0.4436
     32 C         -6.936891   -1.574862   0.375095 C.3        1 UNL1     0.3143
     33 C         -5.831974   -2.607683   0.282082 C.2        1 UNL1     0.2504
     34 C         -10.22365   -4.046667   1.266597 C.3        1 UNL1     -0.0327
     35 O         -6.863773   -0.77753   -0.813251 O.2        1 UNL1     -0.4528
     36 C         -4.917431   2.338086   0.142144 C.3        1 UNL1     0.0854
     37 C         -3.467506   2.459484   0.750833 C.3        1 UNL1     0.0236
     38 C         -2.461874   3.392724   -0.079535 C.3        1 UNL1     0.1131
     39 C         -2.286517   3.168431   -1.635559 C.3        1 UNL1     0.0200
     40 C         -2.145551   1.62661   -2.25633 C.3        1 UNL1     0.0661
     41 C         -1.090142   0.422519   -1.696074 C.3        1 UNL1     0.0091
     42 C         -1.280125   -1.40167   -1.655561 C.3        1 UNL1     0.0661
     43 C         -6.400272   -7.143716   2.448386 C.2        1 UNL1     0.2131
     44 O         -7.075295   -7.831863   3.192386 O.2        1 UNL1     -0.2851
     45 O         -9.140663   -6.673183   2.082683 O.3        1 UNL1     -0.5056
     46 O         -4.704986   -2.469721   -0.138297 O.2        1 UNL1     -0.2836
     47 C         -2.017726   -2.906631   -3.731338 C.3        1 UNL1     -0.0566
     48 O         0.062964   -1.668338   -2.224873 O.3        1 UNL1     -0.3909
     49 C         -0.545685   0.839476   -0.348035 C.3        1 UNL1     -0.0577
     50 O         -3.419698   1.071174   -2.512774 O.3        1 UNL1     -0.3910
     51 O         -5.100802   2.912939   -1.131964 O.3        1 UNL1     -0.3753
     52 C         -3.002764   1.12376   1.41777 C.3        1 UNL1     -0.0564
     53 O         -1.227136   3.773461   0.683871 O.3        1 UNL1     -0.4608
     54 C         -1.027243   3.571412   2.024448 C.2        1 UNL1     0.3042
     55 O         0.022827   3.705404   2.651535 O.2        1 UNL1     -0.2512
     56 C         -2.277568   3.199808   2.769639 C.3        1 UNL1     0.0332
     57 C         -3.268261   4.185996   -2.383165 C.3        1 UNL1     -0.0567
     58 C         -6.895901   -0.925417   1.777974 C.3        1 UNL1     0.0210
     59 C         -5.870494   2.125733   -2.039569 C.3        1 UNL1     0.0372
     60 C         -5.454734   0.95204   0.069055 C.2        1 UNL1     -0.0208
     61 C         -6.096826   0.324718   -0.917316 C.2        1 UNL1     0.0882
     62 H         -3.032759   -2.64159   -1.86485 H        1 UNL1     0.0365
     63 H         -3.647822   -4.540477   -1.433396 H        1 UNL1     0.0576
     64 H         -1.32914   -6.551301   -1.711023 H        1 UNL1     0.0615
     65 H         -4.288109   -6.836463   -0.751312 H        1 UNL1     0.0622
     66 H         -5.561313   2.873715   0.853877 H        1 UNL1     0.0645
     67 H         -3.611324   3.054601   1.66937 H        1 UNL1     0.0362
     68 H         -2.982275   4.357569   0.019356 H        1 UNL1     0.0741
     69 H         -1.364559   3.637069   -1.953019 H        1 UNL1     0.0359
     70 H         -1.739169   1.861082   -3.258795 H        1 UNL1     0.0600
     71 H         -0.216734   0.611183   -2.350689 H        1 UNL1     0.0348
     72 H         -2.009265   -1.037159   -2.393669 H        1 UNL1     0.0602
     73 H         -5.37193   0.494579   1.023582 H        1 UNL1     0.0628
     74 H         -6.174745   0.699209   -1.938552 H        1 UNL1     0.1022
     75 H         -2.423016   -10.504591   -0.894351 H        1 UNL1     0.0279
     76 H         -1.457697   -9.7391   0.303764 H        1 UNL1     0.0279
     77 H         -2.999798   -10.590764   0.718357 H        1 UNL1     0.0279
     78 H         -3.530904   -8.735533   2.306943 H        1 UNL1     0.1553
     79 H         -2.212594   -7.279839   2.043814 H        1 UNL1     0.1484
     80 H         -1.620144   -3.727817   3.256923 H        1 UNL1     0.0317
     81 H         -2.96691   -4.710335   3.814422 H        1 UNL1     0.0317
     82 H         -1.515674   -6.754928   3.899622 H        1 UNL1     0.0428
     83 H         -0.897773   -5.445476   4.882087 H        1 UNL1     0.0428
     84 H         0.915895   -5.986452   1.071432 H        1 UNL1     0.0428
     85 H         -0.330773   -7.106959   1.494996 H        1 UNL1     0.0428
     86 H         -0.969515   -5.218839   -0.005625 H        1 UNL1     0.0317
     87 H         -0.554759   -4.033124   1.145204 H        1 UNL1     0.0317
     88 H         0.929898   -6.6618   4.764659 H        1 UNL1     0.0429
     89 H         1.448947   -7.413365   3.254039 H        1 UNL1     0.0429
     90 H         2.213333   -4.545556   4.053092 H        1 UNL1     0.0308
     91 H         3.197362   -7.04249   5.230535 H        1 UNL1     0.0233
     92 H         4.500663   -6.212109   4.343197 H        1 UNL1     0.0233
     93 H         3.656691   -5.394185   5.640623 H        1 UNL1     0.0233
     94 H         2.472085   -5.974641   1.656547 H        1 UNL1     0.0233
     95 H         3.186497   -4.414038   2.09067 H        1 UNL1     0.0233
     96 H         4.103886   -5.915042   2.354062 H        1 UNL1     0.0233
     97 H         -10.801682   -4.67435   1.938256 H        1 UNL1     0.0280
     98 H         -10.325363   -3.022943   1.649872 H        1 UNL1     0.0280
     99 H         -10.682021   -4.098035   0.265422 H        1 UNL1     0.0280
     100 H         -8.722735   -7.416252   2.481189 H        1 UNL1     0.2922
     101 H         -1.380669   -2.070504   -4.018923 H        1 UNL1     0.0236
     102 H         -3.007695   -2.840215   -4.181375 H        1 UNL1     0.0236
     103 H         -1.552851   -3.788068   -4.203731 H        1 UNL1     0.0236
     104 H         0.590364   -2.120123   -1.537335 H        1 UNL1     0.2098
     105 H         0.133633   1.687569   -0.380844 H        1 UNL1     0.0234
     106 H         -1.302393   0.99113   0.421589 H        1 UNL1     0.0234
     107 H         0.0   0.0   0.0 H        1 UNL1     0.0234
     108 H         -3.776237   1.516758   -3.305303 H        1 UNL1     0.2098
     109 H         -2.465561   0.472452   0.714262 H        1 UNL1     0.0234
     110 H         -2.391051   1.279701   2.312886 H        1 UNL1     0.0234
     111 H         -3.855609   0.532999   1.777773 H        1 UNL1     0.0234
     112 H         -2.215077   3.556046   3.802371 H        1 UNL1     0.0342
     113 H         -3.173828   3.577305   2.279682 H        1 UNL1     0.0342
     114 H         -2.34878   2.103706   2.795214 H        1 UNL1     0.0342
     115 H         -4.10328   3.664164   -2.870632 H        1 UNL1     0.0234
     116 H         -3.694802   4.951089   -1.731441 H        1 UNL1     0.0234
     117 H         -2.802199   4.693945   -3.244975 H        1 UNL1     0.0234
     118 H         -6.273571   -0.013588   1.7947 H        1 UNL1     0.0309
     119 H         -7.889684   -0.688018   2.170708 H        1 UNL1     0.0309
     120 H         -6.420301   -1.569545   2.525643 H        1 UNL1     0.0309
     121 H         -6.108217   2.751715   -2.899215 H        1 UNL1     0.0524
     122 H         -5.312608   1.249949   -2.410787 H        1 UNL1     0.0524
     123 H         -6.783744   1.784743   -1.560202 H        1 UNL1     0.0524
@<TRIPOS>BOND
     1     1     2    1
     2     1    42    1
     3     2     3    2
     4     3     4    1
     5     4     5    2
     6     5     7    1
     7     6    75    1
     8     6    76    1
     9     6    77    1
    10     7     9   am
    11     9    10    1
    12    10    11    2
    13    10    43    1
    14    11    14    1
    15    11    15    1
    16    12    13   ar
    17    12    27   ar
    18    12    43    1
    19    13    14    1
    20    13    30   ar
    21    14    17    2
    22    15    16    1
    23    16    17    1
    24    16    18    1
    25    16    22    1
    26    18    19    1
    27    19    20    1
    28    20    21    1
    29    21    22    1
    30    23    24    1
    31    23    88    1
    32    23    89    1
    33    24    25    1
    34    24    26    1
    35    24    90    1
    36    25    91    1
    37    25    92    1
    38    25    93    1
    39    26    94    1
    40    26    95    1
    41    26    96    1
    42    27    28   ar
    43    28    29   ar
    44    29    30   ar
    45    29    31    1
    46    30    33    1
    47    31    32    1
    48    32    33    1
    49    32    35    1
    50    34    97    1
    51    34    98    1
    52    34    99    1
    53    35    61    1
    54    36    37    1
    55    36    60    1
    56    37    38    1
    57    38    39    1
    58    39    40    1
    59    40    41    1
    60    41    42    1
    61    45   100    1
    62    47   101    1
    63    47   102    1
    64    47   103    1
    65    48   104    1
    66    49   105    1
    67    49   106    1
    68    49   107    1
    69    50   108    1
    70    51    59    1
    71    52   109    1
    72    52   110    1
    73    52   111    1
    74    53    54    1
    75    54    55    2
    76    54    56    1
    77    56   112    1
    78    56   113    1
    79    56   114    1
    80    57   115    1
    81    57   116    1
    82    57   117    1
    83    58   118    1
    84    58   119    1
    85    58   120    1
    86    59   121    1
    87    59   122    1
    88    59   123    1
    89    60    61    2
    90     1    47    1
    91     1    62    1
    92     2    63    1
    93     3    64    1
    94     4    65    1
    95     5     6    1
    96     7     8    2
    97     9    78    1
    98    15    79    1
    99    18    80    1
   100    18    81    1
   101    19    82    1
   102    19    83    1
   103    20    23    1
   104    21    84    1
   105    21    85    1
   106    22    86    1
   107    22    87    1
   108    27    45    1
   109    28    34    1
   110    32    58    1
   111    33    46    2
   112    36    51    1
   113    36    66    1
   114    37    52    1
   115    37    67    1
   116    38    53    1
   117    38    68    1
   118    42    48    1
   119    42    72    1
   120    43    44    2
   121    60    73    1
   122    61    74    1
   123    39    69    1
   124    39    57    1
   125    40    70    1
   126    40    50    1
   127    41    71    1
   128    41    49    1
