@<TRIPOS>MOLECULE
*****
 123 128 0 0 0
SMALL
GASTEIGER

@<TRIPOS>ATOM
     1 C         0.018882   0.06825   4.12799 C.3        1 UNL1     0.0009
     2 C         -1.150158   -0.782132   5.288693 C.2        1 UNL1     -0.0787
     3 C         -2.342751   -0.760985   6.109254 C.2        1 UNL1     -0.0649
     4 C         -3.047464   -2.04779   6.954163 C.2        1 UNL1     -0.0542
     5 C         -4.23465   -2.526728   7.56103 C.2        1 UNL1     0.0115
     6 C         -5.667507   -2.125932   8.007802 C.3        1 UNL1     -0.0348
     7 C         -4.373997   -4.097297   7.862497 C.2        1 UNL1     0.2441
     8 O         -4.222318   -4.57684   8.977647 O.2        1 UNL1     -0.2702
     9 N         -4.936706   -4.850036   6.817082 N.am        1 UNL1     -0.2772
     10 C         -3.957301   -5.27016   5.946689 C.2        1 UNL1     0.1049
     11 C         -3.581327   -4.398226   5.028758 C.2        1 UNL1     0.0801
     12 C         -1.715874   -6.377911   5.867762 C.ar        1 UNL1     0.0753
     13 C         -1.294815   -5.290481   5.037815 C.ar        1 UNL1     0.0305
     14 C         -2.251915   -4.334952   4.484665 C.2        1 UNL1     0.0924
     15 N         -4.141738   -3.232327   4.663866 N.pl3        1 UNL1     -0.3170
     16 C         -3.442057   -2.753257   3.501458 C.3        1 UNL1     0.1275
     17 N         -2.056074   -3.337142   3.627374 N.2        1 UNL1     -0.2557
     18 C         -4.074667   -3.422609   2.285121 C.3        1 UNL1     0.0016
     19 C         -5.565749   -3.125526   2.287125 C.3        1 UNL1     0.0026
     20 N         -5.755162   -1.682038   2.248498 N.3        1 UNL1     -0.3018
     21 C         -5.128463   -0.943149   3.346524 C.3        1 UNL1     0.0026
     22 C         -3.630599   -1.252561   3.322822 C.3        1 UNL1     0.0016
     23 C         -7.120473   -1.300287   1.947106 C.3        1 UNL1     0.0012
     24 C         -7.459881   -1.624561   0.483752 C.3        1 UNL1     -0.0339
     25 C         -8.429095   -0.589877   -0.111319 C.3        1 UNL1     -0.0615
     26 C         -6.185175   -1.732069   -0.334995 C.3        1 UNL1     -0.0615
     27 C         -0.815887   -7.352798   6.291715 C.ar        1 UNL1     0.1347
     28 C         0.516386   -7.368155   5.919073 C.ar        1 UNL1     0.0342
     29 C         0.919089   -6.261259   5.142043 C.ar        1 UNL1     0.1435
     30 C         0.03661   -5.257905   4.739884 C.ar        1 UNL1     0.0774
     31 O         2.158093   -6.188045   4.608643 O.3        1 UNL1     -0.4436
     32 C         2.040105   -5.227995   3.547862 C.3        1 UNL1     0.3143
     33 C         0.838048   -4.380464   3.912502 C.2        1 UNL1     0.2504
     34 C         1.476329   -8.506745   6.124553 C.3        1 UNL1     -0.0327
     35 O         3.188812   -4.374162   3.616372 O.2        1 UNL1     -0.4528
     36 C         3.863249   -3.249281   0.054369 C.3        1 UNL1     0.0854
     37 C         2.909232   -2.494854   -0.949729 C.3        1 UNL1     0.0236
     38 C         3.502056   -1.130969   -1.54983 C.3        1 UNL1     0.1131
     39 C         4.095475   -0.036413   -0.574088 C.3        1 UNL1     0.0200
     40 C         3.299277   0.357728   0.837704 C.3        1 UNL1     0.0661
     41 C         1.653835   0.746611   0.975192 C.3        1 UNL1     0.0091
     42 C         0.471687   0.450855   2.34649 C.3        1 UNL1     0.0661
     43 C         -3.161008   -6.482502   6.188556 C.2        1 UNL1     0.2131
     44 O         -3.701328   -7.51889   6.530158 O.2        1 UNL1     -0.2851
     45 O         -1.297241   -8.352164   7.134926 O.3        1 UNL1     -0.5056
     46 O         0.605147   -3.232222   3.607293 O.2        1 UNL1     -0.2836
     47 C         0.911338   1.074728   4.902914 C.3        1 UNL1     -0.0566
     48 O         -0.065528   1.833006   2.333317 O.3        1 UNL1     -0.3909
     49 C         0.95109   0.354626   -0.305429 C.3        1 UNL1     -0.0577
     50 O         3.68006   -0.509615   1.886725 O.3        1 UNL1     -0.3910
     51 O         5.030842   -2.556139   0.433462 O.3        1 UNL1     -0.3753
     52 C         1.405967   -2.64068   -0.544908 C.3        1 UNL1     -0.0564
     53 O         2.748956   -0.623135   -2.744514 O.3        1 UNL1     -0.4608
     54 C         2.497153   0.694483   -3.024529 C.2        1 UNL1     0.3042
     55 O         1.440389   1.303607   -2.863104 O.2        1 UNL1     -0.2512
     56 C         3.697944   1.441859   -3.530732 C.3        1 UNL1     0.0332
     57 C         5.676955   -0.263395   -0.499409 C.3        1 UNL1     -0.0567
     58 C         1.714766   -6.029982   2.266261 C.3        1 UNL1     0.0210
     59 C         6.239659   -3.067003   -0.126579 C.3        1 UNL1     0.0372
     60 C         3.213469   -3.714464   1.309978 C.2        1 UNL1     -0.0208
     61 C         3.625792   -3.638759   2.576075 C.2        1 UNL1     0.0882
     62 H         0.591559   -0.863964   4.052306 H        1 UNL1     0.0365
     63 H         -0.642808   -1.739704   5.423307 H        1 UNL1     0.0576
     64 H         -3.013579   0.100951   6.122025 H        1 UNL1     0.0615
     65 H         -2.271969   -2.818547   6.949312 H        1 UNL1     0.0622
     66 H         4.165963   -4.158937   -0.483159 H        1 UNL1     0.0645
     67 H         2.896699   -3.141174   -1.844532 H        1 UNL1     0.0362
     68 H         4.367475   -1.532411   -2.098844 H        1 UNL1     0.0741
     69 H         4.135283   0.91033   -1.096104 H        1 UNL1     0.0359
     70 H         3.798078   1.316456   1.076652 H        1 UNL1     0.0600
     71 H         1.705675   1.847681   0.866039 H        1 UNL1     0.0348
     72 H         1.475342   0.370338   2.788654 H        1 UNL1     0.0602
     73 H         2.347099   -4.27797   1.066847 H        1 UNL1     0.0628
     74 H         4.468483   -3.03531   2.915131 H        1 UNL1     0.1022
     75 H         -5.64684   -1.163511   8.573798 H        1 UNL1     0.0279
     76 H         -6.382007   -1.916152   7.21499 H        1 UNL1     0.0279
     77 H         -6.085629   -2.810853   8.759971 H        1 UNL1     0.0279
     78 H         -5.586954   -4.270797   6.290074 H        1 UNL1     0.1553
     79 H         -5.092367   -2.983542   4.867196 H        1 UNL1     0.1484
     80 H         -3.591835   -3.042874   1.376583 H        1 UNL1     0.0317
     81 H         -3.904977   -4.504547   2.301451 H        1 UNL1     0.0317
     82 H         -6.067745   -3.567382   3.160438 H        1 UNL1     0.0428
     83 H         -5.99732   -3.613549   1.412693 H        1 UNL1     0.0428
     84 H         -5.217467   0.143488   3.251074 H        1 UNL1     0.0428
     85 H         -5.602798   -1.165884   4.312294 H        1 UNL1     0.0428
     86 H         -3.187916   -0.596641   4.049312 H        1 UNL1     0.0317
     87 H         -3.193057   -0.914355   2.375579 H        1 UNL1     0.0317
     88 H         -7.788638   -1.879776   2.597523 H        1 UNL1     0.0429
     89 H         -7.296152   -0.239716   2.168692 H        1 UNL1     0.0429
     90 H         -7.931456   -2.613223   0.434999 H        1 UNL1     0.0308
     91 H         -8.117076   0.431117   0.12809 H        1 UNL1     0.0233
     92 H         -8.493406   -0.700118   -1.196363 H        1 UNL1     0.0233
     93 H         -9.450968   -0.707702   0.269113 H        1 UNL1     0.0233
     94 H         -6.403706   -1.573958   -1.396636 H        1 UNL1     0.0233
     95 H         -5.472666   -0.964741   -0.019557 H        1 UNL1     0.0233
     96 H         -5.719202   -2.71481   -0.220725 H        1 UNL1     0.0233
     97 H         1.895663   -8.860333   5.187341 H        1 UNL1     0.0280
     98 H         2.333191   -8.218343   6.747343 H        1 UNL1     0.0280
     99 H         0.953128   -9.347852   6.60818 H        1 UNL1     0.0280
     100 H         -1.793125   -8.038428   7.870651 H        1 UNL1     0.2922
     101 H         1.91305   0.662235   5.021567 H        1 UNL1     0.0236
     102 H         0.481178   1.384443   5.854766 H        1 UNL1     0.0236
     103 H         1.05963   2.013147   4.342939 H        1 UNL1     0.0236
     104 H         0.365078   2.323766   3.060438 H        1 UNL1     0.2098
     105 H         0.792676   1.175608   -1.000199 H        1 UNL1     0.0234
     106 H         1.389553   -0.4987   -0.822645 H        1 UNL1     0.0234
     107 H         0.0   -0.0   0.0 H        1 UNL1     0.0234
     108 H         4.526147   -0.178141   2.244537 H        1 UNL1     0.2098
     109 H         1.076629   -3.689113   -0.538831 H        1 UNL1     0.0234
     110 H         1.173301   -2.177928   0.420219 H        1 UNL1     0.0234
     111 H         0.744133   -2.125332   -1.253666 H        1 UNL1     0.0234
     112 H         3.435038   2.488085   -3.714137 H        1 UNL1     0.0342
     113 H         4.544761   1.365289   -2.850378 H        1 UNL1     0.0342
     114 H         3.999737   0.997453   -4.489162 H        1 UNL1     0.0342
     115 H         6.073953   -0.682692   -1.434166 H        1 UNL1     0.0234
     116 H         6.245449   0.6421   -0.278181 H        1 UNL1     0.0234
     117 H         5.97625   -1.039209   0.226178 H        1 UNL1     0.0234
     118 H         2.556706   -6.029604   1.552017 H        1 UNL1     0.0309
     119 H         1.418433   -7.063842   2.47003 H        1 UNL1     0.0309
     120 H         0.89473   -5.58741   1.69026 H        1 UNL1     0.0309
     121 H         7.053885   -2.798432   0.545926 H        1 UNL1     0.0524
     122 H         6.229043   -4.166334   -0.212585 H        1 UNL1     0.0524
     123 H         6.408906   -2.638013   -1.110152 H        1 UNL1     0.0524
@<TRIPOS>BOND
     1     1     2    1
     2     1    42    1
     3     2     3    2
     4     3     4    1
     5     4     5    2
     6     5     7    1
     7     6    75    1
     8     6    76    1
     9     6    77    1
    10     7     9   am
    11     9    10    1
    12    10    11    2
    13    10    43    1
    14    11    14    1
    15    11    15    1
    16    12    13   ar
    17    12    27   ar
    18    12    43    1
    19    13    14    1
    20    13    30   ar
    21    14    17    2
    22    15    16    1
    23    16    17    1
    24    16    18    1
    25    16    22    1
    26    18    19    1
    27    19    20    1
    28    20    21    1
    29    21    22    1
    30    23    24    1
    31    23    88    1
    32    23    89    1
    33    24    25    1
    34    24    26    1
    35    24    90    1
    36    25    91    1
    37    25    92    1
    38    25    93    1
    39    26    94    1
    40    26    95    1
    41    26    96    1
    42    27    28   ar
    43    28    29   ar
    44    29    30   ar
    45    29    31    1
    46    30    33    1
    47    31    32    1
    48    32    33    1
    49    32    35    1
    50    34    97    1
    51    34    98    1
    52    34    99    1
    53    35    61    1
    54    36    37    1
    55    36    60    1
    56    37    38    1
    57    38    39    1
    58    39    40    1
    59    40    41    1
    60    41    42    1
    61    45   100    1
    62    47   101    1
    63    47   102    1
    64    47   103    1
    65    48   104    1
    66    49   105    1
    67    49   106    1
    68    49   107    1
    69    50   108    1
    70    51    59    1
    71    52   109    1
    72    52   110    1
    73    52   111    1
    74    53    54    1
    75    54    55    2
    76    54    56    1
    77    56   112    1
    78    56   113    1
    79    56   114    1
    80    57   115    1
    81    57   116    1
    82    57   117    1
    83    58   118    1
    84    58   119    1
    85    58   120    1
    86    59   121    1
    87    59   122    1
    88    59   123    1
    89    60    61    2
    90     1    47    1
    91     1    62    1
    92     2    63    1
    93     3    64    1
    94     4    65    1
    95     5     6    1
    96     7     8    2
    97     9    78    1
    98    15    79    1
    99    18    80    1
   100    18    81    1
   101    19    82    1
   102    19    83    1
   103    20    23    1
   104    21    84    1
   105    21    85    1
   106    22    86    1
   107    22    87    1
   108    27    45    1
   109    28    34    1
   110    32    58    1
   111    33    46    2
   112    36    51    1
   113    36    66    1
   114    37    52    1
   115    37    67    1
   116    38    53    1
   117    38    68    1
   118    42    48    1
   119    42    72    1
   120    43    44    2
   121    60    73    1
   122    61    74    1
   123    39    69    1
   124    39    57    1
   125    40    70    1
   126    40    50    1
   127    41    71    1
   128    41    49    1
