@<TRIPOS>MOLECULE
*****
 123 128 0 0 0
SMALL
GASTEIGER

@<TRIPOS>ATOM
     1 C         3.687561   -3.833208   -0.876131 C.3        1 UNL1     0.0009
     2 C         4.199937   -5.580582   -0.528003 C.2        1 UNL1     -0.0787
     3 C         4.935477   -6.538485   0.270402 C.2        1 UNL1     -0.0649
     4 C         4.91871   -8.226931   0.147016 C.2        1 UNL1     -0.0542
     5 C         5.192232   -9.44304   0.820323 C.2        1 UNL1     0.0115
     6 C         5.850617   -10.058204   2.085798 C.3        1 UNL1     -0.0348
     7 C         4.543364   -10.801935   0.264119 C.2        1 UNL1     0.2441
     8 O         5.173269   -11.620476   -0.391423 O.2        1 UNL1     -0.2702
     9 N         3.28123   -11.113881   0.798777 N.am        1 UNL1     -0.2772
     10 C         2.285308   -10.525401   0.05369 C.2        1 UNL1     0.1049
     11 C         2.01869   -9.262366   0.332759 C.2        1 UNL1     0.0801
     12 C         1.486354   -10.214969   -2.296339 C.ar        1 UNL1     0.0753
     13 C         1.413388   -8.815832   -2.003596 C.ar        1 UNL1     0.0305
     14 C         1.551652   -8.311345   -0.639255 C.2        1 UNL1     0.0924
     15 N         2.414193   -8.504854   1.370198 N.pl3        1 UNL1     -0.3170
     16 C         1.707933   -7.253534   1.295042 C.3        1 UNL1     0.1275
     17 N         1.414792   -7.072773   -0.174352 N.2        1 UNL1     -0.2557
     18 C         0.356978   -7.455286   1.974689 C.3        1 UNL1     0.0016
     19 C         0.594716   -7.957981   3.38974 C.3        1 UNL1     0.0026
     20 N         1.400018   -6.977874   4.105216 N.3        1 UNL1     -0.3018
     21 C         2.694406   -6.670767   3.493158 C.3        1 UNL1     0.0026
     22 C         2.431551   -6.16325   2.074275 C.3        1 UNL1     0.0016
     23 C         1.432744   -7.210795   5.535363 C.3        1 UNL1     0.0012
     24 C         0.064988   -6.899618   6.163192 C.3        1 UNL1     -0.0339
     25 C         0.214951   -6.322621   7.580458 C.3        1 UNL1     -0.0615
     26 C         -0.722358   -5.966227   5.26006 C.3        1 UNL1     -0.0615
     27 C         1.23385   -10.698302   -3.578037 C.ar        1 UNL1     0.1347
     28 C         0.861744   -9.88656   -4.63476 C.ar        1 UNL1     0.0342
     29 C         0.844028   -8.507789   -4.335029 C.ar        1 UNL1     0.1435
     30 C         1.129923   -8.005855   -3.064774 C.ar        1 UNL1     0.0774
     31 O         0.395415   -7.598272   -5.227516 O.3        1 UNL1     -0.4436
     32 C         0.084293   -6.439536   -4.439222 C.3        1 UNL1     0.3143
     33 C         0.921794   -6.577834   -3.183962 C.2        1 UNL1     0.2504
     34 C         0.333997   -10.354207   -5.962499 C.3        1 UNL1     -0.0327
     35 O         0.579891   -5.296807   -5.147605 O.2        1 UNL1     -0.4528
     36 C         -1.716659   -2.420584   -4.21955 C.3        1 UNL1     0.0854
     37 C         -2.062692   -1.842105   -2.793666 C.3        1 UNL1     0.0236
     38 C         -1.796588   -0.270326   -2.619187 C.3        1 UNL1     0.1131
     39 C         -0.396574   0.339527   -3.031874 C.3        1 UNL1     0.0200
     40 C         1.019066   -0.442743   -2.623885 C.3        1 UNL1     0.0661
     41 C         1.427067   -1.018705   -1.08135 C.3        1 UNL1     0.0091
     42 C         2.430571   -2.470305   -0.580109 C.3        1 UNL1     0.0661
     43 C         1.752179   -11.143352   -1.169528 C.2        1 UNL1     0.2131
     44 O         1.460379   -12.325402   -1.188176 O.2        1 UNL1     -0.2851
     45 O         1.370861   -12.068716   -3.789295 O.3        1 UNL1     -0.5056
     46 O         1.34156   -5.704419   -2.458154 O.2        1 UNL1     -0.2836
     47 C         4.859664   -3.045924   -1.521376 C.3        1 UNL1     -0.0566
     48 O         3.236775   -1.714853   0.409054 O.3        1 UNL1     -0.3909
     49 C         0.185841   -1.02075   -0.217147 C.3        1 UNL1     -0.0577
     50 O         1.362229   -1.401556   -3.604008 O.3        1 UNL1     -0.3910
     51 O         -1.060171   -1.536867   -5.100175 O.3        1 UNL1     -0.3753
     52 C         -1.749273   -2.869397   -1.657273 C.3        1 UNL1     -0.0564
     53 O         -2.448839   0.317753   -1.402199 O.3        1 UNL1     -0.4608
     54 C         -1.910419   1.293326   -0.604521 C.2        1 UNL1     0.3042
     55 O         -1.850591   2.499957   -0.837549 O.2        1 UNL1     -0.2512
     56 C         -1.401601   0.780371   0.712557 C.3        1 UNL1     0.0332
     57 C         -0.535347   0.899624   -4.523587 C.3        1 UNL1     -0.0567
     58 C         -1.409671   -6.558255   -4.05777 C.3        1 UNL1     0.0210
     59 C         -1.864499   -1.054855   -6.175623 C.3        1 UNL1     0.0372
     60 C         -0.928414   -3.68303   -4.211655 C.2        1 UNL1     -0.0208
     61 C         0.132165   -4.044473   -4.935032 C.2        1 UNL1     0.0882
     62 H         3.065404   -4.2003   -1.701282 H        1 UNL1     0.0365
     63 H         3.738053   -6.099836   -1.370326 H        1 UNL1     0.0576
     64 H         5.470169   -6.239351   1.174687 H        1 UNL1     0.0615
     65 H         4.438228   -8.413001   -0.817348 H        1 UNL1     0.0622
     66 H         -2.691634   -2.676841   -4.657501 H        1 UNL1     0.0645
     67 H         -3.164785   -1.884587   -2.747352 H        1 UNL1     0.0362
     68 H         -2.513989   0.12068   -3.356731 H        1 UNL1     0.0741
     69 H         -0.281737   1.302754   -2.552903 H        1 UNL1     0.0359
     70 H         1.742818   0.380544   -2.776992 H        1 UNL1     0.0600
     71 H         1.967545   -0.137787   -0.682823 H        1 UNL1     0.0348
     72 H         2.701763   -2.26037   -1.624953 H        1 UNL1     0.0602
     73 H         -1.412565   -4.39317   -3.58832 H        1 UNL1     0.0628
     74 H         0.71872   -3.363231   -5.552365 H        1 UNL1     0.1022
     75 H         6.90671   -9.709694   2.187 H        1 UNL1     0.0279
     76 H         5.418201   -9.776498   3.043257 H        1 UNL1     0.0279
     77 H         5.988078   -11.146613   2.007245 H        1 UNL1     0.0279
     78 H         3.211385   -10.748656   1.746306 H        1 UNL1     0.1553
     79 H         2.765059   -8.880235   2.232124 H        1 UNL1     0.1484
     80 H         -0.18918   -6.504246   1.973966 H        1 UNL1     0.0317
     81 H         -0.258159   -8.170418   1.418054 H        1 UNL1     0.0317
     82 H         1.077257   -8.946434   3.394962 H        1 UNL1     0.0428
     83 H         -0.38143   -8.096812   3.855483 H        1 UNL1     0.0428
     84 H         3.243998   -5.874886   4.005344 H        1 UNL1     0.0428
     85 H         3.377105   -7.531043   3.527275 H        1 UNL1     0.0428
     86 H         3.382612   -5.824739   1.707014 H        1 UNL1     0.0317
     87 H         1.8319   -5.245501   2.109662 H        1 UNL1     0.0317
     88 H         1.661335   -8.271342   5.703526 H        1 UNL1     0.0429
     89 H         2.230418   -6.62975   6.015858 H        1 UNL1     0.0429
     90 H         -0.52155   -7.824081   6.222805 H        1 UNL1     0.0308
     91 H         0.982975   -5.544074   7.613715 H        1 UNL1     0.0233
     92 H         -0.732733   -5.906703   7.930483 H        1 UNL1     0.0233
     93 H         0.503418   -7.085575   8.313617 H        1 UNL1     0.0233
     94 H         -1.299796   -5.256272   5.862027 H        1 UNL1     0.0233
     95 H         -0.038475   -5.393611   4.627307 H        1 UNL1     0.0233
     96 H         -1.414958   -6.520215   4.620238 H        1 UNL1     0.0233
     97 H         -0.653738   -9.954561   -6.172005 H        1 UNL1     0.0280
     98 H         0.971096   -10.033758   -6.797168 H        1 UNL1     0.0280
     99 H         0.269665   -11.454632   -5.967204 H        1 UNL1     0.0280
     100 H         2.174337   -12.436384   -3.46546 H        1 UNL1     0.2922
     101 H         4.69563   -1.975629   -1.398017 H        1 UNL1     0.0236
     102 H         5.035422   -3.315456   -2.562262 H        1 UNL1     0.0236
     103 H         5.819146   -3.242265   -1.014387 H        1 UNL1     0.0236
     104 H         3.41304   -0.830592   0.032247 H        1 UNL1     0.2098
     105 H         -0.699071   -1.423994   -0.703086 H        1 UNL1     0.0234
     106 H         0.316173   -1.472992   0.765918 H        1 UNL1     0.0234
     107 H         0.0   0.0   0.0 H        1 UNL1     0.0234
     108 H         2.26996   -1.199451   -3.902245 H        1 UNL1     0.2098
     109 H         -2.331616   -3.79553   -1.761514 H        1 UNL1     0.0234
     110 H         -0.684261   -3.113076   -1.579082 H        1 UNL1     0.0234
     111 H         -2.003894   -2.468017   -0.667319 H        1 UNL1     0.0234
     112 H         -0.980206   1.605024   1.295411 H        1 UNL1     0.0342
     113 H         -2.174592   0.259187   1.275314 H        1 UNL1     0.0342
     114 H         -0.594325   0.062448   0.512411 H        1 UNL1     0.0342
     115 H         0.445168   1.054719   -4.994462 H        1 UNL1     0.0234
     116 H         -1.119962   0.258194   -5.186039 H        1 UNL1     0.0234
     117 H         -0.959182   1.917364   -4.573704 H        1 UNL1     0.0234
     118 H         -2.030502   -5.805257   -4.574075 H        1 UNL1     0.0309
     119 H         -1.823454   -7.553934   -4.246475 H        1 UNL1     0.0309
     120 H         -1.590556   -6.350677   -2.997441 H        1 UNL1     0.0309
     121 H         -1.589039   -1.613758   -7.069551 H        1 UNL1     0.0524
     122 H         -2.940592   -1.219456   -5.99965 H        1 UNL1     0.0524
     123 H         -1.690558   0.00647   -6.328684 H        1 UNL1     0.0524
@<TRIPOS>BOND
     1     1     2    1
     2     1    42    1
     3     2     3    2
     4     3     4    1
     5     4     5    2
     6     5     7    1
     7     6    75    1
     8     6    76    1
     9     6    77    1
    10     7     9   am
    11     9    10    1
    12    10    11    2
    13    10    43    1
    14    11    14    1
    15    11    15    1
    16    12    13   ar
    17    12    27   ar
    18    12    43    1
    19    13    14    1
    20    13    30   ar
    21    14    17    2
    22    15    16    1
    23    16    17    1
    24    16    18    1
    25    16    22    1
    26    18    19    1
    27    19    20    1
    28    20    21    1
    29    21    22    1
    30    23    24    1
    31    23    88    1
    32    23    89    1
    33    24    25    1
    34    24    26    1
    35    24    90    1
    36    25    91    1
    37    25    92    1
    38    25    93    1
    39    26    94    1
    40    26    95    1
    41    26    96    1
    42    27    28   ar
    43    28    29   ar
    44    29    30   ar
    45    29    31    1
    46    30    33    1
    47    31    32    1
    48    32    33    1
    49    32    35    1
    50    34    97    1
    51    34    98    1
    52    34    99    1
    53    35    61    1
    54    36    37    1
    55    36    60    1
    56    37    38    1
    57    38    39    1
    58    39    40    1
    59    40    41    1
    60    41    42    1
    61    45   100    1
    62    47   101    1
    63    47   102    1
    64    47   103    1
    65    48   104    1
    66    49   105    1
    67    49   106    1
    68    49   107    1
    69    50   108    1
    70    51    59    1
    71    52   109    1
    72    52   110    1
    73    52   111    1
    74    53    54    1
    75    54    55    2
    76    54    56    1
    77    56   112    1
    78    56   113    1
    79    56   114    1
    80    57   115    1
    81    57   116    1
    82    57   117    1
    83    58   118    1
    84    58   119    1
    85    58   120    1
    86    59   121    1
    87    59   122    1
    88    59   123    1
    89    60    61    2
    90     1    47    1
    91     1    62    1
    92     2    63    1
    93     3    64    1
    94     4    65    1
    95     5     6    1
    96     7     8    2
    97     9    78    1
    98    15    79    1
    99    18    80    1
   100    18    81    1
   101    19    82    1
   102    19    83    1
   103    20    23    1
   104    21    84    1
   105    21    85    1
   106    22    86    1
   107    22    87    1
   108    27    45    1
   109    28    34    1
   110    32    58    1
   111    33    46    2
   112    36    51    1
   113    36    66    1
   114    37    52    1
   115    37    67    1
   116    38    53    1
   117    38    68    1
   118    42    48    1
   119    42    72    1
   120    43    44    2
   121    60    73    1
   122    61    74    1
   123    39    69    1
   124    39    57    1
   125    40    70    1
   126    40    50    1
   127    41    71    1
   128    41    49    1
