@<TRIPOS>MOLECULE
*****
 123 128 0 0 0
SMALL
GASTEIGER

@<TRIPOS>ATOM
     1 C         3.356835   1.932154   1.723208 C.3        1 UNL1     0.0009
     2 C         4.595339   3.019631   0.874362 C.2        1 UNL1     -0.0787
     3 C         5.917971   3.223444   0.321957 C.2        1 UNL1     -0.0649
     4 C         6.493054   4.567104   -0.532569 C.2        1 UNL1     -0.0542
     5 C         7.486437   5.035836   -1.427308 C.2        1 UNL1     0.0115
     6 C         8.830831   4.671544   -2.115217 C.3        1 UNL1     -0.0348
     7 C         7.229911   6.405212   -2.224799 C.2        1 UNL1     0.2441
     8 O         7.746566   7.467422   -1.906515 O.2        1 UNL1     -0.2702
     9 N         6.582798   6.253077   -3.463448 N.am        1 UNL1     -0.2772
     10 C         5.217061   6.28375   -3.298693 C.2        1 UNL1     0.1049
     11 C         4.648857   5.147926   -2.936383 C.2        1 UNL1     0.0801
     12 C         3.378103   7.592369   -2.22023 C.ar        1 UNL1     0.0753
     13 C         2.91944   6.350395   -1.676412 C.ar        1 UNL1     0.0305
     14 C         3.464371   5.070969   -2.124935 C.2        1 UNL1     0.0924
     15 N         5.153153   3.902553   -2.900914 N.pl3        1 UNL1     -0.3170
     16 C         4.074172   3.000021   -2.598439 C.3        1 UNL1     0.1275
     17 N         3.094937   3.833204   -1.808106 N.2        1 UNL1     -0.2557
     18 C         3.380352   2.667129   -3.915823 C.3        1 UNL1     0.0016
     19 C         4.41322   2.109338   -4.882074 C.3        1 UNL1     0.0026
     20 N         5.0131   0.921163   -4.290964 N.3        1 UNL1     -0.3018
     21 C         5.652361   1.12907   -2.990007 C.3        1 UNL1     0.0026
     22 C         4.595751   1.685195   -2.033872 C.3        1 UNL1     0.0016
     23 C         5.785437   0.146746   -5.241973 C.3        1 UNL1     0.0012
     24 C         4.858329   -0.535584   -6.260134 C.3        1 UNL1     -0.0339
     25 C         3.583852   0.289904   -6.501664 C.3        1 UNL1     -0.0615
     26 C         5.608801   -0.796824   -7.554478 C.3        1 UNL1     -0.0615
     27 C         2.771462   8.798369   -1.877201 C.ar        1 UNL1     0.1347
     28 C         1.677396   8.884045   -1.034746 C.ar        1 UNL1     0.0342
     29 C         1.274025   7.653988   -0.473127 C.ar        1 UNL1     0.1435
     30 C         1.895073   6.442484   -0.779358 C.ar        1 UNL1     0.0774
     31 O         0.156713   7.555712   0.279841 O.3        1 UNL1     -0.4436
     32 C         -0.173351   6.158761   0.258392 C.3        1 UNL1     0.3143
     33 C         1.127737   5.449097   -0.057455 C.2        1 UNL1     0.2504
     34 C         0.82292   10.102247   -0.820376 C.3        1 UNL1     -0.0327
     35 O         -0.538134   5.786705   1.593217 O.2        1 UNL1     -0.4528
     36 C         -3.0522   2.965256   1.236866 C.3        1 UNL1     0.0854
     37 C         -2.895574   1.577995   0.503042 C.3        1 UNL1     0.0236
     38 C         -3.202682   0.293642   1.412913 C.3        1 UNL1     0.1131
     39 C         -2.50282   0.145443   2.823763 C.3        1 UNL1     0.0200
     40 C         -0.881383   0.493513   3.003282 C.3        1 UNL1     0.0661
     41 C         0.374573   -0.090028   2.023657 C.3        1 UNL1     0.0091
     42 C         1.964182   0.686551   1.538405 C.3        1 UNL1     0.0661
     43 C         4.463728   7.544799   -3.23088 C.2        1 UNL1     0.2131
     44 O         4.672902   8.43376   -4.03632 O.2        1 UNL1     -0.2851
     45 O         3.307938   9.966326   -2.41526 O.3        1 UNL1     -0.5056
     46 O         1.464015   4.324527   0.239382 O.2        1 UNL1     -0.2836
     47 C         3.699306   1.800198   3.231612 C.3        1 UNL1     -0.0566
     48 O         2.776382   -0.515337   1.846481 O.3        1 UNL1     -0.3909
     49 C         -0.222789   -0.692069   0.771379 C.3        1 UNL1     -0.0577
     50 O         -0.690164   1.869123   3.265691 O.3        1 UNL1     -0.3910
     51 O         -3.268142   2.905029   2.628689 O.3        1 UNL1     -0.3753
     52 C         -1.729588   1.59915   -0.538582 C.3        1 UNL1     -0.0564
     53 O         -3.391226   -0.969512   0.624738 O.3        1 UNL1     -0.4608
     54 C         -2.965829   -2.215296   1.005513 C.2        1 UNL1     0.3042
     55 O         -1.876886   -2.516029   1.492957 O.2        1 UNL1     -0.2512
     56 C         -4.007791   -3.284203   0.836794 C.3        1 UNL1     0.0332
     57 C         -3.513497   0.713598   3.925537 C.3        1 UNL1     -0.0567
     58 C         -1.150574   5.958293   -0.923293 C.3        1 UNL1     0.0210
     59 C         -2.472917   3.805802   3.398163 C.3        1 UNL1     0.0372
     60 C         -1.934138   3.922729   1.016995 C.2        1 UNL1     -0.0208
     61 C         -1.278012   4.698653   1.880814 C.2        1 UNL1     0.0882
     62 H         2.619151   2.739299   1.639232 H        1 UNL1     0.0365
     63 H         4.036419   3.955783   0.813552 H        1 UNL1     0.0576
     64 H         6.647852   2.412463   0.270083 H        1 UNL1     0.0615
     65 H         5.735828   5.334753   -0.351442 H        1 UNL1     0.0622
     66 H         -3.937223   3.424024   0.773926 H        1 UNL1     0.0645
     67 H         -3.741711   1.552445   -0.205449 H        1 UNL1     0.0362
     68 H         -4.266176   0.473639   1.632237 H        1 UNL1     0.0741
     69 H         -2.558763   -0.889766   3.132988 H        1 UNL1     0.0359
     70 H         -0.686038   -0.002841   3.973093 H        1 UNL1     0.0600
     71 H         0.654399   -1.000051   2.589795 H        1 UNL1     0.0348
     72 H         1.621339   1.229715   2.431012 H        1 UNL1     0.0602
     73 H         -1.76456   4.028144   -0.02578 H        1 UNL1     0.0628
     74 H         -1.351681   4.613325   2.965494 H        1 UNL1     0.1022
     75 H         9.553408   4.259494   -1.370145 H        1 UNL1     0.0279
     76 H         8.794282   3.885161   -2.865773 H        1 UNL1     0.0279
     77 H         9.375244   5.555065   -2.479507 H        1 UNL1     0.0279
     78 H         6.82258   5.349416   -3.865913 H        1 UNL1     0.1553
     79 H         5.973938   3.619478   -3.404017 H        1 UNL1     0.1484
     80 H         2.578687   1.943516   -3.724817 H        1 UNL1     0.0317
     81 H         2.904668   3.556374   -4.343162 H        1 UNL1     0.0317
     82 H         5.180242   2.856399   -5.134048 H        1 UNL1     0.0428
     83 H         3.897594   1.880434   -5.815232 H        1 UNL1     0.0428
     84 H         6.024212   0.207388   -2.531704 H        1 UNL1     0.0428
     85 H         6.544162   1.765959   -3.069877 H        1 UNL1     0.0428
     86 H         5.060207   1.698858   -1.065326 H        1 UNL1     0.0317
     87 H         3.780508   0.961209   -1.914205 H        1 UNL1     0.0317
     88 H         6.451257   0.833419   -5.780914 H        1 UNL1     0.0429
     89 H         6.423735   -0.587325   -4.733553 H        1 UNL1     0.0429
     90 H         4.568541   -1.521477   -5.877707 H        1 UNL1     0.0308
     91 H         2.759624   -0.057445   -5.871506 H        1 UNL1     0.0233
     92 H         3.765862   1.348629   -6.30271 H        1 UNL1     0.0233
     93 H         3.237522   0.229112   -7.540507 H        1 UNL1     0.0233
     94 H         4.941549   -1.25601   -8.291878 H        1 UNL1     0.0233
     95 H         5.974154   0.145886   -7.971343 H        1 UNL1     0.0233
     96 H         6.459429   -1.465285   -7.394606 H        1 UNL1     0.0233
     97 H         -0.218017   9.918762   -1.069401 H        1 UNL1     0.0280
     98 H         0.827792   10.432105   0.226727 H        1 UNL1     0.0280
     99 H         1.18969   10.926418   -1.453873 H        1 UNL1     0.0280
     100 H         4.241446   10.045575   -2.326357 H        1 UNL1     0.2922
     101 H         3.012783   2.409396   3.819166 H        1 UNL1     0.0236
     102 H         4.74119   2.026284   3.45599 H        1 UNL1     0.0236
     103 H         3.548677   0.772468   3.602118 H        1 UNL1     0.0236
     104 H         2.158928   -1.24013   2.066474 H        1 UNL1     0.2098
     105 H         0.200454   -1.652743   0.488923 H        1 UNL1     0.0234
     106 H         -1.31153   -0.742346   0.764927 H        1 UNL1     0.0234
     107 H         0.0   0.0   0.0 H        1 UNL1     0.0234
     108 H         0.267578   2.009297   3.395502 H        1 UNL1     0.2098
     109 H         -1.856708   2.39167   -1.289224 H        1 UNL1     0.0234
     110 H         -0.740729   1.687858   -0.075946 H        1 UNL1     0.0234
     111 H         -1.675386   0.659629   -1.10454 H        1 UNL1     0.0234
     112 H         -4.659552   -3.310574   1.715349 H        1 UNL1     0.0342
     113 H         -4.587123   -3.151026   -0.07561 H        1 UNL1     0.0342
     114 H         -3.496264   -4.254117   0.767709 H        1 UNL1     0.0342
     115 H         -3.439936   0.159654   4.871541 H        1 UNL1     0.0234
     116 H         -3.372932   1.772141   4.153083 H        1 UNL1     0.0234
     117 H         -4.57577   0.558378   3.669754 H        1 UNL1     0.0234
     118 H         -2.173318   5.723162   -0.5802 H        1 UNL1     0.0309
     119 H         -1.188558   6.817879   -1.599955 H        1 UNL1     0.0309
     120 H         -0.887754   5.094924   -1.544281 H        1 UNL1     0.0309
     121 H         -1.659001   3.231831   3.840266 H        1 UNL1     0.0524
     122 H         -2.021707   4.599009   2.779076 H        1 UNL1     0.0524
     123 H         -3.073754   4.265758   4.177605 H        1 UNL1     0.0524
@<TRIPOS>BOND
     1     1     2    1
     2     1    42    1
     3     2     3    2
     4     3     4    1
     5     4     5    2
     6     5     7    1
     7     6    75    1
     8     6    76    1
     9     6    77    1
    10     7     9   am
    11     9    10    1
    12    10    11    2
    13    10    43    1
    14    11    14    1
    15    11    15    1
    16    12    13   ar
    17    12    27   ar
    18    12    43    1
    19    13    14    1
    20    13    30   ar
    21    14    17    2
    22    15    16    1
    23    16    17    1
    24    16    18    1
    25    16    22    1
    26    18    19    1
    27    19    20    1
    28    20    21    1
    29    21    22    1
    30    23    24    1
    31    23    88    1
    32    23    89    1
    33    24    25    1
    34    24    26    1
    35    24    90    1
    36    25    91    1
    37    25    92    1
    38    25    93    1
    39    26    94    1
    40    26    95    1
    41    26    96    1
    42    27    28   ar
    43    28    29   ar
    44    29    30   ar
    45    29    31    1
    46    30    33    1
    47    31    32    1
    48    32    33    1
    49    32    35    1
    50    34    97    1
    51    34    98    1
    52    34    99    1
    53    35    61    1
    54    36    37    1
    55    36    60    1
    56    37    38    1
    57    38    39    1
    58    39    40    1
    59    40    41    1
    60    41    42    1
    61    45   100    1
    62    47   101    1
    63    47   102    1
    64    47   103    1
    65    48   104    1
    66    49   105    1
    67    49   106    1
    68    49   107    1
    69    50   108    1
    70    51    59    1
    71    52   109    1
    72    52   110    1
    73    52   111    1
    74    53    54    1
    75    54    55    2
    76    54    56    1
    77    56   112    1
    78    56   113    1
    79    56   114    1
    80    57   115    1
    81    57   116    1
    82    57   117    1
    83    58   118    1
    84    58   119    1
    85    58   120    1
    86    59   121    1
    87    59   122    1
    88    59   123    1
    89    60    61    2
    90     1    47    1
    91     1    62    1
    92     2    63    1
    93     3    64    1
    94     4    65    1
    95     5     6    1
    96     7     8    2
    97     9    78    1
    98    15    79    1
    99    18    80    1
   100    18    81    1
   101    19    82    1
   102    19    83    1
   103    20    23    1
   104    21    84    1
   105    21    85    1
   106    22    86    1
   107    22    87    1
   108    27    45    1
   109    28    34    1
   110    32    58    1
   111    33    46    2
   112    36    51    1
   113    36    66    1
   114    37    52    1
   115    37    67    1
   116    38    53    1
   117    38    68    1
   118    42    48    1
   119    42    72    1
   120    43    44    2
   121    60    73    1
   122    61    74    1
   123    39    69    1
   124    39    57    1
   125    40    70    1
   126    40    50    1
   127    41    71    1
   128    41    49    1
