@<TRIPOS>MOLECULE
*****
 123 128 0 0 0
SMALL
GASTEIGER

@<TRIPOS>ATOM
     1 C         3.012954   3.221538   3.247058 C.3        1 UNL1     0.0009
     2 C         4.004825   4.78305   3.369158 C.2        1 UNL1     -0.0787
     3 C         5.284739   5.459126   3.397199 C.2        1 UNL1     -0.0649
     4 C         5.580939   7.125944   3.41565 C.2        1 UNL1     -0.0542
     5 C         6.539409   8.137732   3.161289 C.2        1 UNL1     0.0115
     6 C         8.037109   8.397976   2.841146 C.3        1 UNL1     -0.0348
     7 C         6.040336   9.652656   2.979845 C.2        1 UNL1     0.2441
     8 O         6.141066   10.496366   3.85992 O.2        1 UNL1     -0.2702
     9 N         5.720463   10.013228   1.659307 N.am        1 UNL1     -0.2772
     10 C         4.404202   9.719207   1.386672 C.2        1 UNL1     0.1049
     11 C         4.146501   8.471451   1.038942 C.2        1 UNL1     0.0801
     12 C         2.08463   9.989016   2.2834 C.ar        1 UNL1     0.0753
     13 C         1.92629   8.58118   2.079595 C.ar        1 UNL1     0.0305
     14 C         2.90744   7.801727   1.328032 C.2        1 UNL1     0.0924
     15 N         4.986248   7.477848   0.701147 N.pl3        1 UNL1     -0.3170
     16 C         4.192744   6.369054   0.2416 C.3        1 UNL1     0.1275
     17 N         2.874853   6.523904   0.960563 N.2        1 UNL1     -0.2557
     18 C         3.898944   6.605278   -1.236771 C.3        1 UNL1     0.0016
     19 C         5.217712   6.781152   -1.972644 C.3        1 UNL1     0.0026
     20 N         6.022475   5.582158   -1.783433 N.3        1 UNL1     -0.3018
     21 C         6.306194   5.237497   -0.388772 C.3        1 UNL1     0.0026
     22 C         4.967707   5.060965   0.330382 C.3        1 UNL1     0.0016
     23 C         7.160379   5.519609   -2.678925 C.3        1 UNL1     0.0012
     24 C         6.696825   5.26573   -4.121984 C.3        1 UNL1     -0.0339
     25 C         6.562791   6.579767   -4.909002 C.3        1 UNL1     -0.0615
     26 C         7.642228   4.296181   -4.80971 C.3        1 UNL1     -0.0615
     27 C         1.088317   10.746316   2.894936 C.ar        1 UNL1     0.1347
     28 C         -0.121342   10.216406   3.30721 C.ar        1 UNL1     0.0342
     29 C         -0.235075   8.819786   3.140827 C.ar        1 UNL1     0.1435
     30 C         0.769266   8.042357   2.562792 C.ar        1 UNL1     0.0774
     31 O         -1.39372   8.172161   3.39208 O.3        1 UNL1     -0.4436
     32 C         -1.276393   6.930179   2.681736 C.3        1 UNL1     0.3143
     33 C         0.213417   6.705981   2.519207 C.2        1 UNL1     0.2504
     34 C         -1.327985   11.003382   3.737073 C.3        1 UNL1     -0.0327
     35 O         -1.76179   5.896748   3.547566 O.2        1 UNL1     -0.4528
     36 C         -3.189626   3.216545   1.270313 C.3        1 UNL1     0.0854
     37 C         -2.483602   2.415879   0.109284 C.3        1 UNL1     0.0236
     38 C         -2.558121   0.819835   0.246524 C.3        1 UNL1     0.1131
     39 C         -2.13155   0.127711   1.603458 C.3        1 UNL1     0.0200
     40 C         -0.757061   0.622525   2.408677 C.3        1 UNL1     0.0661
     41 C         0.780363   0.822086   1.720118 C.3        1 UNL1     0.0091
     42 C         2.123864   2.002039   2.130142 C.3        1 UNL1     0.0661
     43 C         3.307297   10.632086   1.741363 C.2        1 UNL1     0.2131
     44 O         3.389534   11.821895   1.495744 O.2        1 UNL1     -0.2851
     45 O         1.340537   12.10172   3.096691 O.3        1 UNL1     -0.5056
     46 O         0.809508   5.658647   2.402503 O.2        1 UNL1     -0.2836
     47 C         3.082122   2.432938   4.582464 C.3        1 UNL1     -0.0566
     48 O         3.185517   0.966697   2.138793 O.3        1 UNL1     -0.3909
     49 C         0.645289   0.813349   0.213741 C.3        1 UNL1     -0.0577
     50 O         -1.043995   1.704314   3.271882 O.3        1 UNL1     -0.3910
     51 O         -3.641081   2.44808   2.362595 O.3        1 UNL1     -0.3753
     52 C         -1.200664   3.146938   -0.405082 C.3        1 UNL1     -0.0564
     53 O         -2.201381   0.091182   -1.016064 O.3        1 UNL1     -0.4608
     54 C         -1.804202   -1.218094   -1.093361 C.2        1 UNL1     0.3042
     55 O         -0.690258   -1.644028   -1.395929 O.2        1 UNL1     -0.2512
     56 C         -2.87503   -2.195605   -0.700278 C.3        1 UNL1     0.0332
     57 C         -3.458817   -0.101522   2.466006 C.3        1 UNL1     -0.0567
     58 C         -1.9009   7.163654   1.286383 C.3        1 UNL1     0.0210
     59 C         -4.766958   2.98958   3.05183 C.3        1 UNL1     0.0372
     60 C         -2.392107   4.33888   1.835546 C.2        1 UNL1     -0.0208
     61 C         -2.17982   4.69614   3.102844 C.2        1 UNL1     0.0882
     62 H         2.096812   3.823104   3.28596 H        1 UNL1     0.0365
     63 H         3.212231   5.51502   3.537933 H        1 UNL1     0.0576
     64 H         6.22091   4.919187   3.238582 H        1 UNL1     0.0615
     65 H         4.60742   7.560969   3.657511 H        1 UNL1     0.0622
     66 H         -4.065292   3.679239   0.79369 H        1 UNL1     0.0645
     67 H         -3.129581   2.591081   -0.76854 H        1 UNL1     0.0362
     68 H         -3.647709   0.679956   0.177568 H        1 UNL1     0.0741
     69 H         -1.931046   -0.918145   1.412692 H        1 UNL1     0.0359
     70 H         -0.611651   -0.240729   3.085957 H        1 UNL1     0.0600
     71 H         1.207169   -0.183099   1.905583 H        1 UNL1     0.0348
     72 H         1.468013   1.970779   3.012298 H        1 UNL1     0.0602
     73 H         -2.064784   4.967547   1.045049 H        1 UNL1     0.0628
     74 H         -2.431715   4.081048   3.967395 H        1 UNL1     0.1022
     75 H         8.59737   7.434153   2.776434 H        1 UNL1     0.0279
     76 H         8.254727   8.860359   1.880983 H        1 UNL1     0.0279
     77 H         8.566423   8.901651   3.66324 H        1 UNL1     0.0279
     78 H         6.294453   9.47901   1.010289 H        1 UNL1     0.1553
     79 H         5.934934   7.625412   0.409337 H        1 UNL1     0.1484
     80 H         3.331879   5.752559   -1.629296 H        1 UNL1     0.0317
     81 H         3.268794   7.49058   -1.373895 H        1 UNL1     0.0317
     82 H         5.757093   7.67758   -1.632941 H        1 UNL1     0.0428
     83 H         4.984957   6.950131   -3.024462 H        1 UNL1     0.0428
     84 H         6.84321   4.291116   -0.271341 H        1 UNL1     0.0428
     85 H         6.962188   5.977672   0.089905 H        1 UNL1     0.0428
     86 H         5.210797   4.681688   1.305597 H        1 UNL1     0.0317
     87 H         4.401812   4.240348   -0.127272 H        1 UNL1     0.0317
     88 H         7.6769   6.487704   -2.642972 H        1 UNL1     0.0429
     89 H         7.881439   4.758137   -2.354878 H        1 UNL1     0.0429
     90 H         5.719651   4.768749   -4.10317 H        1 UNL1     0.0308
     91 H         7.508257   7.130063   -4.928241 H        1 UNL1     0.0233
     92 H         6.240443   6.384685   -5.934498 H        1 UNL1     0.0233
     93 H         5.812381   7.251716   -4.475176 H        1 UNL1     0.0233
     94 H         7.429919   4.259279   -5.883675 H        1 UNL1     0.0233
     95 H         8.676264   4.628364   -4.681707 H        1 UNL1     0.0233
     96 H         7.543106   3.285891   -4.402946 H        1 UNL1     0.0233
     97 H         -2.169136   10.360311   3.978225 H        1 UNL1     0.0280
     98 H         -1.134771   11.596835   4.640255 H        1 UNL1     0.0280
     99 H         -1.634114   11.682709   2.924734 H        1 UNL1     0.0280
     100 H         2.136191   12.286585   3.564003 H        1 UNL1     0.2922
     101 H         2.463223   1.538565   4.513774 H        1 UNL1     0.0236
     102 H         2.829755   3.039155   5.451829 H        1 UNL1     0.0236
     103 H         4.097638   2.055405   4.788349 H        1 UNL1     0.0236
     104 H         3.301567   0.670951   3.062935 H        1 UNL1     0.2098
     105 H         0.196814   1.712068   -0.202174 H        1 UNL1     0.0234
     106 H         1.559903   0.563924   -0.324028 H        1 UNL1     0.0234
     107 H         0.0   0.0   -0.0 H        1 UNL1     0.0234
     108 H         -1.320548   2.455941   2.713004 H        1 UNL1     0.2098
     109 H         -0.453099   3.283318   0.388806 H        1 UNL1     0.0234
     110 H         -0.736819   2.649432   -1.263615 H        1 UNL1     0.0234
     111 H         -1.429999   4.15558   -0.773855 H        1 UNL1     0.0234
     112 H         -2.493262   -3.217949   -0.780351 H        1 UNL1     0.0342
     113 H         -3.261392   -1.999957   0.298866 H        1 UNL1     0.0342
     114 H         -3.710348   -2.09177   -1.406414 H        1 UNL1     0.0342
     115 H         -4.176661   -0.750852   1.946141 H        1 UNL1     0.0234
     116 H         -3.278329   -0.534704   3.451818 H        1 UNL1     0.0234
     117 H         -4.059238   0.814523   2.60128 H        1 UNL1     0.0234
     118 H         -2.999854   7.058348   1.30112 H        1 UNL1     0.0309
     119 H         -1.640001   8.135768   0.85612 H        1 UNL1     0.0309
     120 H         -1.585065   6.413095   0.553569 H        1 UNL1     0.0309
     121 H         -4.470227   3.955152   3.460459 H        1 UNL1     0.0524
     122 H         -5.624764   3.162546   2.380793 H        1 UNL1     0.0524
     123 H         -5.074277   2.322344   3.852108 H        1 UNL1     0.0524
@<TRIPOS>BOND
     1     1     2    1
     2     1    42    1
     3     2     3    2
     4     3     4    1
     5     4     5    2
     6     5     7    1
     7     6    75    1
     8     6    76    1
     9     6    77    1
    10     7     9   am
    11     9    10    1
    12    10    11    2
    13    10    43    1
    14    11    14    1
    15    11    15    1
    16    12    13   ar
    17    12    27   ar
    18    12    43    1
    19    13    14    1
    20    13    30   ar
    21    14    17    2
    22    15    16    1
    23    16    17    1
    24    16    18    1
    25    16    22    1
    26    18    19    1
    27    19    20    1
    28    20    21    1
    29    21    22    1
    30    23    24    1
    31    23    88    1
    32    23    89    1
    33    24    25    1
    34    24    26    1
    35    24    90    1
    36    25    91    1
    37    25    92    1
    38    25    93    1
    39    26    94    1
    40    26    95    1
    41    26    96    1
    42    27    28   ar
    43    28    29   ar
    44    29    30   ar
    45    29    31    1
    46    30    33    1
    47    31    32    1
    48    32    33    1
    49    32    35    1
    50    34    97    1
    51    34    98    1
    52    34    99    1
    53    35    61    1
    54    36    37    1
    55    36    60    1
    56    37    38    1
    57    38    39    1
    58    39    40    1
    59    40    41    1
    60    41    42    1
    61    45   100    1
    62    47   101    1
    63    47   102    1
    64    47   103    1
    65    48   104    1
    66    49   105    1
    67    49   106    1
    68    49   107    1
    69    50   108    1
    70    51    59    1
    71    52   109    1
    72    52   110    1
    73    52   111    1
    74    53    54    1
    75    54    55    2
    76    54    56    1
    77    56   112    1
    78    56   113    1
    79    56   114    1
    80    57   115    1
    81    57   116    1
    82    57   117    1
    83    58   118    1
    84    58   119    1
    85    58   120    1
    86    59   121    1
    87    59   122    1
    88    59   123    1
    89    60    61    2
    90     1    47    1
    91     1    62    1
    92     2    63    1
    93     3    64    1
    94     4    65    1
    95     5     6    1
    96     7     8    2
    97     9    78    1
    98    15    79    1
    99    18    80    1
   100    18    81    1
   101    19    82    1
   102    19    83    1
   103    20    23    1
   104    21    84    1
   105    21    85    1
   106    22    86    1
   107    22    87    1
   108    27    45    1
   109    28    34    1
   110    32    58    1
   111    33    46    2
   112    36    51    1
   113    36    66    1
   114    37    52    1
   115    37    67    1
   116    38    53    1
   117    38    68    1
   118    42    48    1
   119    42    72    1
   120    43    44    2
   121    60    73    1
   122    61    74    1
   123    39    69    1
   124    39    57    1
   125    40    70    1
   126    40    50    1
   127    41    71    1
   128    41    49    1
