@<TRIPOS>MOLECULE
*****
 123 128 0 0 0
SMALL
GASTEIGER

@<TRIPOS>ATOM
     1 C         -4.501295   0.619533   -1.772471 C.3        1 UNL1     0.0009
     2 C         -6.221894   -0.026725   -1.529717 C.2        1 UNL1     -0.0787
     3 C         -7.227454   -1.041299   -1.765375 C.2        1 UNL1     -0.0649
     4 C         -8.780099   -1.142352   -1.097962 C.2        1 UNL1     -0.0542
     5 C         -9.870094   -2.003205   -0.818819 C.2        1 UNL1     0.0115
     6 C         -10.451993   -3.419494   -1.081194 C.3        1 UNL1     -0.0348
     7 C         -10.963061   -1.546479   0.264608 C.2        1 UNL1     0.2441
     8 O         -12.059998   -1.10129   -0.043714 O.2        1 UNL1     -0.2702
     9 N         -10.680218   -1.933974   1.585971 N.am        1 UNL1     -0.2772
     10 C         -9.90412   -0.983997   2.209299 C.2        1 UNL1     0.1049
     11 C         -8.605156   -1.05215   1.980674 C.2        1 UNL1     0.0801
     12 C         -9.73932   1.47559   2.634279 C.ar        1 UNL1     0.0753
     13 C         -8.386459   1.384734   2.175889 C.ar        1 UNL1     0.0305
     14 C         -7.737056   0.093852   1.959209 C.2        1 UNL1     0.0924
     15 N         -7.879576   -2.025082   1.403211 N.pl3        1 UNL1     -0.3170
     16 C         -6.489646   -1.685136   1.554164 C.3        1 UNL1     0.1275
     17 N         -6.475947   -0.178202   1.635919 N.2        1 UNL1     -0.2557
     18 C         -6.047569   -2.187655   2.925202 C.3        1 UNL1     0.0016
     19 C         -6.343247   -3.676245   3.01612 C.3        1 UNL1     0.0026
     20 N         -5.625372   -4.36169   1.950358 N.3        1 UNL1     -0.3018
     21 C         -5.938404   -3.903471   0.595214 C.3        1 UNL1     0.0026
     22 C         -5.629622   -2.40693   0.525126 C.3        1 UNL1     0.0016
     23 C         -5.596117   -5.800235   2.12464 C.3        1 UNL1     0.0012
     24 C         -4.148501   -6.315788   2.105426 C.3        1 UNL1     -0.0339
     25 C         -3.154615   -5.189206   1.778228 C.3        1 UNL1     -0.0615
     26 C         -3.817206   -6.987178   3.426888 C.3        1 UNL1     -0.0615
     27 C         -10.312088   2.704366   2.953908 C.ar        1 UNL1     0.1347
     28 C         -9.6213   3.901526   2.893328 C.ar        1 UNL1     0.0342
     29 C         -8.306403   3.793296   2.392831 C.ar        1 UNL1     0.1435
     30 C         -7.731218   2.573496   2.034402 C.ar        1 UNL1     0.0774
     31 O         -7.468879   4.853159   2.377028 O.3        1 UNL1     -0.4436
     32 C         -6.157944   4.277891   2.270304 C.3        1 UNL1     0.3143
     33 C         -6.374539   2.90969   1.656036 C.2        1 UNL1     0.2504
     34 C         -10.085011   5.216473   3.455455 C.3        1 UNL1     -0.0327
     35 O         -5.428616   5.054643   1.312186 O.2        1 UNL1     -0.4528
     36 C         -1.786881   4.851338   2.363146 C.3        1 UNL1     0.0854
     37 C         -0.878085   3.5784   2.566226 C.3        1 UNL1     0.0236
     38 C         0.48416   3.578565   1.720039 C.3        1 UNL1     0.1131
     39 C         0.442565   3.866517   0.165168 C.3        1 UNL1     0.0200
     40 C         -0.726678   3.162116   -0.793543 C.3        1 UNL1     0.0661
     41 C         -1.130131   1.514651   -0.819899 C.3        1 UNL1     0.0091
     42 C         -2.738016   0.688067   -1.131139 C.3        1 UNL1     0.0661
     43 C         -10.484116   0.209196   2.84353 C.2        1 UNL1     0.2131
     44 O         -11.454344   0.111607   3.572825 O.2        1 UNL1     -0.2851
     45 O         -11.648309   2.710049   3.348774 O.3        1 UNL1     -0.5056
     46 O         -5.607767   2.254441   0.986287 O.2        1 UNL1     -0.2836
     47 C         -4.337357   1.191435   -3.206359 C.3        1 UNL1     -0.0566
     48 O         -2.17647   -0.295855   -2.088051 O.3        1 UNL1     -0.3909
     49 C         -0.514575   0.842119   0.386868 C.3        1 UNL1     -0.0577
     50 O         -1.901606   3.947613   -0.809704 O.3        1 UNL1     -0.3910
     51 O         -1.384045   5.739873   1.345472 O.3        1 UNL1     -0.3753
     52 C         -1.729023   2.282727   2.771378 C.3        1 UNL1     -0.0564
     53 O         1.479187   2.555128   2.183529 O.3        1 UNL1     -0.4608
     54 C         2.307395   1.826254   1.370667 C.2        1 UNL1     0.3042
     55 O         3.525004   1.685802   1.478088 O.2        1 UNL1     -0.2512
     56 C         1.58415   1.09443   0.276106 C.3        1 UNL1     0.0332
     57 C         0.739895   5.423948   -0.045014 C.3        1 UNL1     -0.0567
     58 C         -5.639657   4.099158   3.71632 C.3        1 UNL1     0.0210
     59 C         -1.791049   7.094041   1.53637 C.3        1 UNL1     0.0372
     60 C         -3.229524   4.564303   2.136095 C.2        1 UNL1     -0.0208
     61 C         -4.083448   5.075908   1.248503 C.2        1 UNL1     0.0882
     62 H         -4.749063   1.468167   -1.123516 H        1 UNL1     0.0365
     63 H         -6.671165   0.795863   -0.969382 H        1 UNL1     0.0576
     64 H         -6.99481   -1.964228   -2.301272 H        1 UNL1     0.0615
     65 H         -8.940741   -0.153121   -0.660814 H        1 UNL1     0.0622
     66 H         -1.733158   5.384757   3.322638 H        1 UNL1     0.0645
     67 H         -0.496367   3.683156   3.596701 H        1 UNL1     0.0362
     68 H         0.977662   4.455508   2.166077 H        1 UNL1     0.0741
     69 H         1.36138   3.508468   -0.27979 H        1 UNL1     0.0359
     70 H         -0.275039   3.319421   -1.791711 H        1 UNL1     0.0600
     71 H         -0.459694   1.164388   -1.629088 H        1 UNL1     0.0348
     72 H         -2.833556   1.702605   -1.544539 H        1 UNL1     0.0602
     73 H         -3.584413   3.926873   2.907448 H        1 UNL1     0.0628
     74 H         -3.792101   5.689128   0.395088 H        1 UNL1     0.1022
     75 H         -11.223044   -3.674674   -0.314776 H        1 UNL1     0.0279
     76 H         -10.994694   -3.555859   -2.013905 H        1 UNL1     0.0279
     77 H         -9.713883   -4.218952   -0.920685 H        1 UNL1     0.0279
     78 H         -10.153649   -2.805056   1.581695 H        1 UNL1     0.1553
     79 H         -8.199722   -2.970135   1.296838 H        1 UNL1     0.1484
     80 H         -4.977676   -1.983286   3.052983 H        1 UNL1     0.0317
     81 H         -6.567192   -1.649694   3.725352 H        1 UNL1     0.0317
     82 H         -7.422609   -3.881006   2.961669 H        1 UNL1     0.0428
     83 H         -6.021989   -4.01356   4.002052 H        1 UNL1     0.0428
     84 H         -5.328639   -4.377825   -0.180019 H        1 UNL1     0.0428
     85 H         -6.970819   -4.147839   0.309344 H        1 UNL1     0.0428
     86 H         -5.742267   -2.136131   -0.508299 H        1 UNL1     0.0317
     87 H         -4.563628   -2.234845   0.717839 H        1 UNL1     0.0317
     88 H         -6.037743   -6.03491   3.101978 H        1 UNL1     0.0429
     89 H         -6.206808   -6.306335   1.365896 H        1 UNL1     0.0429
     90 H         -4.055364   -7.096476   1.341185 H        1 UNL1     0.0308
     91 H         -2.588133   -5.410318   0.868662 H        1 UNL1     0.0233
     92 H         -3.676734   -4.237704   1.653149 H        1 UNL1     0.0233
     93 H         -2.421937   -5.032974   2.579233 H        1 UNL1     0.0233
     94 H         -2.732268   -7.091057   3.536218 H        1 UNL1     0.0233
     95 H         -4.182912   -6.377421   4.257802 H        1 UNL1     0.0233
     96 H         -4.26799   -7.981327   3.493446 H        1 UNL1     0.0233
     97 H         -9.343931   5.999422   3.324989 H        1 UNL1     0.0280
     98 H         -10.995849   5.579496   2.961648 H        1 UNL1     0.0280
     99 H         -10.285549   5.106696   4.533801 H        1 UNL1     0.0280
     100 H         -12.247523   3.031035   2.69798 H        1 UNL1     0.2922
     101 H         -5.157809   0.847048   -3.835575 H        1 UNL1     0.0236
     102 H         -3.364929   0.972957   -3.646398 H        1 UNL1     0.0236
     103 H         -4.413332   2.291474   -3.224662 H        1 UNL1     0.0236
     104 H         -1.205112   -0.188976   -2.085018 H        1 UNL1     0.2098
     105 H         0.205684   1.454459   0.923598 H        1 UNL1     0.0234
     106 H         -1.232961   0.407373   1.081738 H        1 UNL1     0.0234
     107 H         0.0   -0.0   0.0 H        1 UNL1     0.0234
     108 H         -2.53548   3.509138   -1.409465 H        1 UNL1     0.2098
     109 H         -2.64856   2.289352   2.169615 H        1 UNL1     0.0234
     110 H         -1.167801   1.363298   2.572825 H        1 UNL1     0.0234
     111 H         -2.056808   2.174642   3.813885 H        1 UNL1     0.0234
     112 H         2.0807   0.140274   0.075184 H        1 UNL1     0.0342
     113 H         0.531028   0.94527   0.509622 H        1 UNL1     0.0342
     114 H         1.63968   1.701964   -0.637668 H        1 UNL1     0.0342
     115 H         1.303017   5.611065   -0.969714 H        1 UNL1     0.0234
     116 H         -0.156227   6.04696   -0.074511 H        1 UNL1     0.0234
     117 H         1.424115   5.847056   0.710475 H        1 UNL1     0.0234
     118 H         -4.872735   4.849225   3.977543 H        1 UNL1     0.0309
     119 H         -6.43753   4.126962   4.465204 H        1 UNL1     0.0309
     120 H         -5.120274   3.145655   3.861855 H        1 UNL1     0.0309
     121 H         -2.035347   7.219346   2.590871 H        1 UNL1     0.0524
     122 H         -0.988299   7.81027   1.294201 H        1 UNL1     0.0524
     123 H         -2.658794   7.31591   0.921645 H        1 UNL1     0.0524
@<TRIPOS>BOND
     1     1     2    1
     2     1    42    1
     3     2     3    2
     4     3     4    1
     5     4     5    2
     6     5     7    1
     7     6    75    1
     8     6    76    1
     9     6    77    1
    10     7     9   am
    11     9    10    1
    12    10    11    2
    13    10    43    1
    14    11    14    1
    15    11    15    1
    16    12    13   ar
    17    12    27   ar
    18    12    43    1
    19    13    14    1
    20    13    30   ar
    21    14    17    2
    22    15    16    1
    23    16    17    1
    24    16    18    1
    25    16    22    1
    26    18    19    1
    27    19    20    1
    28    20    21    1
    29    21    22    1
    30    23    24    1
    31    23    88    1
    32    23    89    1
    33    24    25    1
    34    24    26    1
    35    24    90    1
    36    25    91    1
    37    25    92    1
    38    25    93    1
    39    26    94    1
    40    26    95    1
    41    26    96    1
    42    27    28   ar
    43    28    29   ar
    44    29    30   ar
    45    29    31    1
    46    30    33    1
    47    31    32    1
    48    32    33    1
    49    32    35    1
    50    34    97    1
    51    34    98    1
    52    34    99    1
    53    35    61    1
    54    36    37    1
    55    36    60    1
    56    37    38    1
    57    38    39    1
    58    39    40    1
    59    40    41    1
    60    41    42    1
    61    45   100    1
    62    47   101    1
    63    47   102    1
    64    47   103    1
    65    48   104    1
    66    49   105    1
    67    49   106    1
    68    49   107    1
    69    50   108    1
    70    51    59    1
    71    52   109    1
    72    52   110    1
    73    52   111    1
    74    53    54    1
    75    54    55    2
    76    54    56    1
    77    56   112    1
    78    56   113    1
    79    56   114    1
    80    57   115    1
    81    57   116    1
    82    57   117    1
    83    58   118    1
    84    58   119    1
    85    58   120    1
    86    59   121    1
    87    59   122    1
    88    59   123    1
    89    60    61    2
    90     1    47    1
    91     1    62    1
    92     2    63    1
    93     3    64    1
    94     4    65    1
    95     5     6    1
    96     7     8    2
    97     9    78    1
    98    15    79    1
    99    18    80    1
   100    18    81    1
   101    19    82    1
   102    19    83    1
   103    20    23    1
   104    21    84    1
   105    21    85    1
   106    22    86    1
   107    22    87    1
   108    27    45    1
   109    28    34    1
   110    32    58    1
   111    33    46    2
   112    36    51    1
   113    36    66    1
   114    37    52    1
   115    37    67    1
   116    38    53    1
   117    38    68    1
   118    42    48    1
   119    42    72    1
   120    43    44    2
   121    60    73    1
   122    61    74    1
   123    39    69    1
   124    39    57    1
   125    40    70    1
   126    40    50    1
   127    41    71    1
   128    41    49    1
