@<TRIPOS>MOLECULE
*****
 123 128 0 0 0
SMALL
GASTEIGER

@<TRIPOS>ATOM
     1 C         -2.186501   -2.843888   -2.258875 C.3        1 UNL1     0.0009
     2 C         -2.07795   -3.16616   -4.081344 C.2        1 UNL1     -0.0787
     3 C         -2.63272   -3.046647   -5.413258 C.2        1 UNL1     -0.0649
     4 C         -1.921995   -3.501054   -6.881161 C.2        1 UNL1     -0.0542
     5 C         -1.94145   -3.319102   -8.286008 C.2        1 UNL1     0.0115
     6 C         -2.741812   -2.692979   -9.461045 C.3        1 UNL1     -0.0348
     7 C         -0.66094   -3.765662   -9.145 C.2        1 UNL1     0.2441
     8 O         -0.624666   -4.800406   -9.796549 O.2        1 UNL1     -0.2702
     9 N         0.315017   -2.76741   -9.309774 N.am        1 UNL1     -0.2772
     10 C         1.210261   -2.794011   -8.265192 C.2        1 UNL1     0.1049
     11 C         0.841735   -2.160491   -7.166527 C.2        1 UNL1     0.0801
     12 C         2.660608   -4.337857   -6.934639 C.ar        1 UNL1     0.0753
     13 C         2.071803   -3.757521   -5.766253 C.ar        1 UNL1     0.0305
     14 C         1.239948   -2.558734   -5.843574 C.2        1 UNL1     0.0924
     15 N         -0.178581   -1.310118   -6.96074 N.pl3        1 UNL1     -0.3170
     16 C         -0.037799   -0.767359   -5.635656 C.3        1 UNL1     0.1275
     17 N         0.700762   -1.835304   -4.866407 N.2        1 UNL1     -0.2557
     18 C         0.91496   0.420327   -5.732382 C.3        1 UNL1     0.0016
     19 C         0.367556   1.400699   -6.757471 C.3        1 UNL1     0.0026
     20 N         -0.959577   1.826644   -6.335193 N.3        1 UNL1     -0.3018
     21 C         -1.931178   0.746035   -6.154519 C.3        1 UNL1     0.0026
     22 C         -1.363061   -0.224427   -5.117532 C.3        1 UNL1     0.0016
     23 C         -1.44428   2.976118   -7.073038 C.3        1 UNL1     0.0012
     24 C         -2.976391   2.936515   -7.186276 C.3        1 UNL1     -0.0339
     25 C         -3.448421   3.370789   -8.583649 C.3        1 UNL1     -0.0615
     26 C         -3.489475   1.552629   -6.827967 C.3        1 UNL1     -0.0615
     27 C         3.548709   -5.406735   -6.840326 C.ar        1 UNL1     0.1347
     28 C         3.953125   -5.952332   -5.634995 C.ar        1 UNL1     0.0342
     29 C         3.323064   -5.397088   -4.501023 C.ar        1 UNL1     0.1435
     30 C         2.40413   -4.350133   -4.582663 C.ar        1 UNL1     0.0774
     31 O         3.691354   -5.745489   -3.248831 O.3        1 UNL1     -0.4436
     32 C         3.20564   -4.680057   -2.418284 C.3        1 UNL1     0.3143
     33 C         2.07527   -4.048183   -3.205186 C.2        1 UNL1     0.2504
     34 C         5.084042   -6.923908   -5.442208 C.3        1 UNL1     -0.0327
     35 O         2.620552   -5.27922   -1.25556 O.2        1 UNL1     -0.4528
     36 C         3.088833   -2.771246   1.554932 C.3        1 UNL1     0.0854
     37 C         2.61187   -1.270353   1.640672 C.3        1 UNL1     0.0236
     38 C         1.717004   -0.917826   2.923903 C.3        1 UNL1     0.1131
     39 C         0.463982   -1.816037   3.278053 C.3        1 UNL1     0.0200
     40 C         -0.580463   -2.319731   2.078943 C.3        1 UNL1     0.0661
     41 C         -1.291475   -1.328931   0.899797 C.3        1 UNL1     0.0091
     42 C         -1.767858   -1.695961   -0.833337 C.3        1 UNL1     0.0661
     43 C         2.363553   -3.706058   -8.244162 C.2        1 UNL1     0.2131
     44 O         3.070517   -3.831242   -9.22766 O.2        1 UNL1     -0.2851
     45 O         4.041503   -5.942746   -8.028301 O.3        1 UNL1     -0.5056
     46 O         1.109137   -3.449659   -2.787803 O.2        1 UNL1     -0.2836
     47 C         -3.227376   -3.791827   -1.604677 C.3        1 UNL1     -0.0566
     48 O         -3.113975   -1.085602   -0.712733 O.3        1 UNL1     -0.3909
     49 C         -0.578285   0.004757   0.88836 C.3        1 UNL1     -0.0577
     50 O         -0.125225   -3.521223   1.489962 O.3        1 UNL1     -0.3910
     51 O         2.534058   -3.649362   2.50812 O.3        1 UNL1     -0.3753
     52 C         2.309211   -0.674384   0.227106 C.3        1 UNL1     -0.0564
     53 O         1.573488   0.555739   3.169535 O.3        1 UNL1     -0.4608
     54 C         0.439782   1.292392   2.945965 C.2        1 UNL1     0.3042
     55 O         -0.164389   1.997061   3.753588 O.2        1 UNL1     -0.2512
     56 C         -0.041592   1.238741   1.523954 C.3        1 UNL1     0.0332
     57 C         0.935472   -2.897209   4.358302 C.3        1 UNL1     -0.0567
     58 C         4.360622   -3.658895   -2.296739 C.3        1 UNL1     0.0210
     59 C         2.937552   -5.011436   2.374659 C.3        1 UNL1     0.0372
     60 C         2.909169   -3.413128   0.224192 C.2        1 UNL1     -0.0208
     61 C         2.433723   -4.616876   -0.097811 C.2        1 UNL1     0.0882
     62 H         -1.207102   -3.321658   -2.135483 H        1 UNL1     0.0365
     63 H         -1.168111   -3.768245   -4.127786 H        1 UNL1     0.0576
     64 H         -3.542749   -2.473775   -5.605018 H        1 UNL1     0.0615
     65 H         -1.078029   -4.127207   -6.579273 H        1 UNL1     0.0622
     66 H         4.173979   -2.726088   1.723649 H        1 UNL1     0.0645
     67 H         3.536432   -0.707149   1.856417 H        1 UNL1     0.0362
     68 H         2.451324   -1.114525   3.719897 H        1 UNL1     0.0741
     69 H         -0.186134   -1.260692   3.940885 H        1 UNL1     0.0359
     70 H         -1.446666   -2.625282   2.696512 H        1 UNL1     0.0600
     71 H         -2.236779   -1.065146   1.413387 H        1 UNL1     0.0348
     72 H         -1.676968   -2.670007   -0.331054 H        1 UNL1     0.0602
     73 H         3.350761   -2.800083   -0.521744 H        1 UNL1     0.0628
     74 H         1.914916   -5.280459   0.594818 H        1 UNL1     0.1022
     75 H         -2.09208   -2.581339   -10.362389 H        1 UNL1     0.0279
     76 H         -3.576314   -3.275736   -9.844543 H        1 UNL1     0.0279
     77 H         -3.029776   -1.64869   -9.270682 H        1 UNL1     0.0279
     78 H         -0.129065   -1.851512   -9.30937 H        1 UNL1     0.1553
     79 H         -0.658519   -0.827248   -7.697916 H        1 UNL1     0.1484
     80 H         1.008275   0.885274   -4.743502 H        1 UNL1     0.0317
     81 H         1.919671   0.093481   -6.021135 H        1 UNL1     0.0317
     82 H         0.34036   0.962406   -7.765971 H        1 UNL1     0.0428
     83 H         1.062999   2.238821   -6.811895 H        1 UNL1     0.0428
     84 H         -2.894886   1.083928   -5.760937 H        1 UNL1     0.0428
     85 H         -2.186889   0.262659   -7.107555 H        1 UNL1     0.0428
     86 H         -2.15189   -0.924474   -4.913395 H        1 UNL1     0.0317
     87 H         -1.225804   0.29   -4.158563 H        1 UNL1     0.0317
     88 H         -1.157858   3.881344   -6.521837 H        1 UNL1     0.0429
     89 H         -0.975558   3.040824   -8.063436 H        1 UNL1     0.0429
     90 H         -3.409137   3.617829   -6.444147 H        1 UNL1     0.0308
     91 H         -3.251766   4.432941   -8.757609 H        1 UNL1     0.0233
     92 H         -2.952277   2.782491   -9.35912 H        1 UNL1     0.0233
     93 H         -4.525161   3.219035   -8.726608 H        1 UNL1     0.0233
     94 H         -2.712066   0.802742   -7.010013 H        1 UNL1     0.0233
     95 H         -3.752578   1.514771   -5.767162 H        1 UNL1     0.0233
     96 H         -4.370224   1.287997   -7.419759 H        1 UNL1     0.0233
     97 H         4.760567   -7.831528   -4.941388 H        1 UNL1     0.0280
     98 H         5.519827   -7.246418   -6.396847 H        1 UNL1     0.0280
     99 H         5.873367   -6.455101   -4.83206 H        1 UNL1     0.0280
     100 H         4.324799   -6.838007   -7.966055 H        1 UNL1     0.2922
     101 H         -2.861906   -4.125054   -0.633571 H        1 UNL1     0.0236
     102 H         -3.507913   -4.627567   -2.244849 H        1 UNL1     0.0236
     103 H         -4.176674   -3.275612   -1.384343 H        1 UNL1     0.0236
     104 H         -3.763229   -1.734722   -1.047521 H        1 UNL1     0.2098
     105 H         -1.239128   0.867121   0.85056 H        1 UNL1     0.0234
     106 H         0.163278   0.131373   1.677016 H        1 UNL1     0.0234
     107 H         0.0   0.0   0.0 H        1 UNL1     0.0234
     108 H         -0.787772   -3.78678   0.82342 H        1 UNL1     0.2098
     109 H         3.217286   -0.311985   -0.274668 H        1 UNL1     0.0234
     110 H         1.781262   -1.373269   -0.430596 H        1 UNL1     0.0234
     111 H         1.637607   0.192283   0.288607 H        1 UNL1     0.0234
     112 H         -1.073546   1.598081   1.466578 H        1 UNL1     0.0342
     113 H         0.605399   1.799594   0.851131 H        1 UNL1     0.0342
     114 H         -0.031668   0.189628   1.197723 H        1 UNL1     0.0342
     115 H         0.082806   -3.344142   4.88783 H        1 UNL1     0.0234
     116 H         1.526917   -3.714039   3.939936 H        1 UNL1     0.0234
     117 H         1.503153   -2.461177   5.198276 H        1 UNL1     0.0234
     118 H         3.995079   -2.647164   -2.048176 H        1 UNL1     0.0309
     119 H         5.120477   -3.954623   -1.566417 H        1 UNL1     0.0309
     120 H         4.891534   -3.510121   -3.243367 H        1 UNL1     0.0309
     121 H         2.563478   -5.552724   3.24324 H        1 UNL1     0.0524
     122 H         2.510152   -5.488344   1.476926 H        1 UNL1     0.0524
     123 H         4.020734   -5.079741   2.328353 H        1 UNL1     0.0524
@<TRIPOS>BOND
     1     1     2    1
     2     1    42    1
     3     2     3    2
     4     3     4    1
     5     4     5    2
     6     5     7    1
     7     6    75    1
     8     6    76    1
     9     6    77    1
    10     7     9   am
    11     9    10    1
    12    10    11    2
    13    10    43    1
    14    11    14    1
    15    11    15    1
    16    12    13   ar
    17    12    27   ar
    18    12    43    1
    19    13    14    1
    20    13    30   ar
    21    14    17    2
    22    15    16    1
    23    16    17    1
    24    16    18    1
    25    16    22    1
    26    18    19    1
    27    19    20    1
    28    20    21    1
    29    21    22    1
    30    23    24    1
    31    23    88    1
    32    23    89    1
    33    24    25    1
    34    24    26    1
    35    24    90    1
    36    25    91    1
    37    25    92    1
    38    25    93    1
    39    26    94    1
    40    26    95    1
    41    26    96    1
    42    27    28   ar
    43    28    29   ar
    44    29    30   ar
    45    29    31    1
    46    30    33    1
    47    31    32    1
    48    32    33    1
    49    32    35    1
    50    34    97    1
    51    34    98    1
    52    34    99    1
    53    35    61    1
    54    36    37    1
    55    36    60    1
    56    37    38    1
    57    38    39    1
    58    39    40    1
    59    40    41    1
    60    41    42    1
    61    45   100    1
    62    47   101    1
    63    47   102    1
    64    47   103    1
    65    48   104    1
    66    49   105    1
    67    49   106    1
    68    49   107    1
    69    50   108    1
    70    51    59    1
    71    52   109    1
    72    52   110    1
    73    52   111    1
    74    53    54    1
    75    54    55    2
    76    54    56    1
    77    56   112    1
    78    56   113    1
    79    56   114    1
    80    57   115    1
    81    57   116    1
    82    57   117    1
    83    58   118    1
    84    58   119    1
    85    58   120    1
    86    59   121    1
    87    59   122    1
    88    59   123    1
    89    60    61    2
    90     1    47    1
    91     1    62    1
    92     2    63    1
    93     3    64    1
    94     4    65    1
    95     5     6    1
    96     7     8    2
    97     9    78    1
    98    15    79    1
    99    18    80    1
   100    18    81    1
   101    19    82    1
   102    19    83    1
   103    20    23    1
   104    21    84    1
   105    21    85    1
   106    22    86    1
   107    22    87    1
   108    27    45    1
   109    28    34    1
   110    32    58    1
   111    33    46    2
   112    36    51    1
   113    36    66    1
   114    37    52    1
   115    37    67    1
   116    38    53    1
   117    38    68    1
   118    42    48    1
   119    42    72    1
   120    43    44    2
   121    60    73    1
   122    61    74    1
   123    39    69    1
   124    39    57    1
   125    40    70    1
   126    40    50    1
   127    41    71    1
   128    41    49    1
