@<TRIPOS>MOLECULE
*****
 123 128 0 0 0
SMALL
GASTEIGER

@<TRIPOS>ATOM
     1 C         3.896618   0.661647   1.187475 C.3        1 UNL1     0.0009
     2 C         4.511996   1.870344   2.451356 C.2        1 UNL1     -0.0787
     3 C         5.05645   3.169315   2.786456 C.2        1 UNL1     -0.0649
     4 C         5.339266   3.81327   4.326487 C.2        1 UNL1     -0.0542
     5 C         5.539594   5.003428   5.068425 C.2        1 UNL1     0.0115
     6 C         5.797151   6.530706   4.948395 C.3        1 UNL1     -0.0348
     7 C         5.34024   4.968967   6.660926 C.2        1 UNL1     0.2441
     8 O         6.275967   4.931093   7.448013 O.2        1 UNL1     -0.2702
     9 N         4.033354   5.248205   7.097077 N.am        1 UNL1     -0.2772
     10 C         3.285353   4.094183   7.142336 C.2        1 UNL1     0.1049
     11 C         2.750283   3.702226   6.00028 C.2        1 UNL1     0.0801
     12 C         3.324301   1.736616   7.97762 C.ar        1 UNL1     0.0753
     13 C         2.942854   1.344551   6.654975 C.ar        1 UNL1     0.0305
     14 C         2.515912   2.32518   5.659414 C.2        1 UNL1     0.0924
     15 N         2.637524   4.354283   4.830393 N.pl3        1 UNL1     -0.3170
     16 C         1.822141   3.552422   3.957225 C.3        1 UNL1     0.1275
     17 N         2.039283   2.136442   4.432169 N.2        1 UNL1     -0.2557
     18 C         0.365669   3.884441   4.267314 C.3        1 UNL1     0.0016
     19 C         0.16501   5.38356   4.112495 C.3        1 UNL1     0.0026
     20 N         0.510294   5.76343   2.749591 N.3        1 UNL1     -0.3018
     21 C         1.874867   5.428074   2.337467 C.3        1 UNL1     0.0026
     22 C         2.052928   3.917164   2.49666 C.3        1 UNL1     0.0016
     23 C         0.074117   7.103207   2.409901 C.3        1 UNL1     0.0012
     24 C         0.325965   7.390455   0.921338 C.3        1 UNL1     -0.0339
     25 C         -0.893958   7.018476   0.062574 C.3        1 UNL1     -0.0615
     26 C         0.721009   8.8446   0.731126 C.3        1 UNL1     -0.0615
     27 C         3.613478   0.7886   8.956273 C.ar        1 UNL1     0.1347
     28 C         3.517593   -0.574954   8.742789 C.ar        1 UNL1     0.0342
     29 C         3.187833   -0.937963   7.419668 C.ar        1 UNL1     0.1435
     30 C         2.930721   0.000363   6.419339 C.ar        1 UNL1     0.0774
     31 O         2.948867   -2.223559   7.080338 O.3        1 UNL1     -0.4436
     32 C         2.209818   -2.143118   5.852247 C.3        1 UNL1     0.3143
     33 C         2.56447   -0.792317   5.264226 C.2        1 UNL1     0.2504
     34 C         3.566166   -1.639053   9.803654 C.3        1 UNL1     -0.0327
     35 O         2.743706   -3.13623   4.967971 O.2        1 UNL1     -0.4528
     36 C         -0.138742   -4.204668   2.74131 C.3        1 UNL1     0.0854
     37 C         -1.046038   -3.326659   1.796091 C.3        1 UNL1     0.0236
     38 C         -1.09871   -3.811642   0.268426 C.3        1 UNL1     0.1131
     39 C         0.247828   -4.084399   -0.515607 C.3        1 UNL1     0.0200
     40 C         1.531243   -3.027079   -0.38385 C.3        1 UNL1     0.0661
     41 C         1.454296   -1.34279   -0.570557 C.3        1 UNL1     0.0091
     42 C         2.425203   -0.010656   0.234527 C.3        1 UNL1     0.0661
     43 C         3.314995   3.185561   8.29814 C.2        1 UNL1     0.2131
     44 O         3.230396   3.623738   9.431092 O.2        1 UNL1     -0.2851
     45 O         4.021198   1.253961   10.204728 O.3        1 UNL1     -0.5056
     46 O         2.565929   -0.453363   4.101917 O.2        1 UNL1     -0.2836
     47 C         5.087283   0.052445   0.399332 C.3        1 UNL1     -0.0566
     48 O         2.709262   0.704681   -1.033037 O.3        1 UNL1     -0.3909
     49 C         0.004341   -0.913831   -0.537134 C.3        1 UNL1     -0.0577
     50 O         2.336989   -3.353357   0.730618 O.3        1 UNL1     -0.3910
     51 O         0.643376   -5.189273   2.103912 O.3        1 UNL1     -0.3753
     52 C         -0.999777   -1.813287   2.186622 C.3        1 UNL1     -0.0564
     53 O         -2.217199   -3.194603   -0.519339 O.3        1 UNL1     -0.4608
     54 C         -3.51304   -3.065065   -0.092791 C.2        1 UNL1     0.3042
     55 O         -4.391595   -2.353618   -0.578407 O.2        1 UNL1     -0.2512
     56 C         -3.856638   -3.956802   1.066286 C.3        1 UNL1     0.0332
     57 C         0.558169   -5.649942   -0.411025 C.3        1 UNL1     -0.0567
     58 C         0.71322   -2.140264   6.241757 C.3        1 UNL1     0.0210
     59 C         2.04475   -4.921631   2.084334 C.3        1 UNL1     0.0372
     60 C         0.777683   -3.434848   3.626015 C.2        1 UNL1     -0.0208
     61 C         2.066193   -3.626251   3.91211 C.2        1 UNL1     0.0882
     62 H         3.666471   -0.039857   1.998423 H        1 UNL1     0.0365
     63 H         4.458983   1.262567   3.357042 H        1 UNL1     0.0576
     64 H         5.18827   3.946984   2.030836 H        1 UNL1     0.0615
     65 H         5.261541   2.947239   4.989383 H        1 UNL1     0.0622
     66 H         -0.847515   -4.712509   3.410477 H        1 UNL1     0.0645
     67 H         -2.074434   -3.546463   2.131723 H        1 UNL1     0.0362
     68 H         -1.562119   -4.800605   0.405271 H        1 UNL1     0.0741
     69 H         0.040476   -4.074478   -1.577358 H        1 UNL1     0.0359
     70 H         2.129488   -3.343275   -1.25974 H        1 UNL1     0.0600
     71 H         1.680975   -1.257582   -1.651442 H        1 UNL1     0.0348
     72 H         3.010597   -0.932657   0.363147 H        1 UNL1     0.0602
     73 H         0.218863   -2.705041   4.157382 H        1 UNL1     0.0628
     74 H         2.721916   -4.312119   3.374663 H        1 UNL1     0.1022
     75 H         5.584628   6.883719   3.910488 H        1 UNL1     0.0279
     76 H         5.163694   7.178303   5.550407 H        1 UNL1     0.0279
     77 H         6.86036   6.792184   5.05288 H        1 UNL1     0.0279
     78 H         3.581304   5.88069   6.440046 H        1 UNL1     0.1553
     79 H         2.71619   5.35039   4.738111 H        1 UNL1     0.1484
     80 H         -0.282495   3.321038   3.585238 H        1 UNL1     0.0317
     81 H         0.100402   3.570618   5.282597 H        1 UNL1     0.0317
     82 H         0.758452   5.951456   4.844091 H        1 UNL1     0.0428
     83 H         -0.879539   5.598608   4.33992 H        1 UNL1     0.0428
     84 H         2.082949   5.651117   1.286389 H        1 UNL1     0.0428
     85 H         2.623802   6.014107   2.8879 H        1 UNL1     0.0428
     86 H         3.009592   3.69112   2.063432 H        1 UNL1     0.0317
     87 H         1.347688   3.386104   1.845732 H        1 UNL1     0.0317
     88 H         -1.004925   7.169836   2.601012 H        1 UNL1     0.0429
     89 H         0.560345   7.854127   3.045885 H        1 UNL1     0.0429
     90 H         1.185111   6.799811   0.581895 H        1 UNL1     0.0308
     91 H         -1.169414   5.96813   0.196737 H        1 UNL1     0.0233
     92 H         -1.750146   7.648739   0.314209 H        1 UNL1     0.0233
     93 H         -0.7108   7.164974   -1.008792 H        1 UNL1     0.0233
     94 H         1.206529   8.979984   -0.241385 H        1 UNL1     0.0233
     95 H         -0.168933   9.479736   0.754949 H        1 UNL1     0.0233
     96 H         1.411994   9.175739   1.511418 H        1 UNL1     0.0233
     97 H         2.610686   -2.141635   9.920694 H        1 UNL1     0.0280
     98 H         4.293077   -2.426872   9.566595 H        1 UNL1     0.0280
     99 H         3.838128   -1.184337   10.77028 H        1 UNL1     0.0280
     100 H         3.431265   1.867961   10.605484 H        1 UNL1     0.2922
     101 H         4.732172   -0.353249   -0.54775 H        1 UNL1     0.0236
     102 H         5.650298   -0.682498   0.973663 H        1 UNL1     0.0236
     103 H         5.830257   0.816407   0.115529 H        1 UNL1     0.0236
     104 H         1.876027   0.745125   -1.54201 H        1 UNL1     0.2098
     105 H         -0.431347   -0.726824   -1.515406 H        1 UNL1     0.0234
     106 H         -0.648284   -1.559984   0.049803 H        1 UNL1     0.0234
     107 H         -0.0   0.0   0.0 H        1 UNL1     0.0234
     108 H         1.935353   -4.132757   1.160727 H        1 UNL1     0.2098
     109 H         -1.934934   -1.475745   2.654873 H        1 UNL1     0.0234
     110 H         -0.153675   -1.561822   2.835174 H        1 UNL1     0.0234
     111 H         -0.859977   -1.172166   1.306073 H        1 UNL1     0.0234
     112 H         -4.727313   -3.559111   1.596486 H        1 UNL1     0.0342
     113 H         -4.025621   -4.986491   0.75479 H        1 UNL1     0.0342
     114 H         -3.007809   -3.955111   1.76389 H        1 UNL1     0.0342
     115 H         0.230956   -6.192032   -1.308944 H        1 UNL1     0.0234
     116 H         1.612759   -5.883838   -0.252335 H        1 UNL1     0.0234
     117 H         -0.026038   -6.16286   0.372275 H        1 UNL1     0.0234
     118 H         0.556241   -2.459371   7.287 H        1 UNL1     0.0309
     119 H         0.230926   -1.169835   6.08728 H        1 UNL1     0.0309
     120 H         0.127567   -2.865058   5.665746 H        1 UNL1     0.0309
     121 H         2.37167   -4.951756   1.045309 H        1 UNL1     0.0524
     122 H         2.285008   -3.920373   2.479044 H        1 UNL1     0.0524
     123 H         2.578024   -5.667546   2.666849 H        1 UNL1     0.0524
@<TRIPOS>BOND
     1     1     2    1
     2     1    42    1
     3     2     3    2
     4     3     4    1
     5     4     5    2
     6     5     7    1
     7     6    75    1
     8     6    76    1
     9     6    77    1
    10     7     9   am
    11     9    10    1
    12    10    11    2
    13    10    43    1
    14    11    14    1
    15    11    15    1
    16    12    13   ar
    17    12    27   ar
    18    12    43    1
    19    13    14    1
    20    13    30   ar
    21    14    17    2
    22    15    16    1
    23    16    17    1
    24    16    18    1
    25    16    22    1
    26    18    19    1
    27    19    20    1
    28    20    21    1
    29    21    22    1
    30    23    24    1
    31    23    88    1
    32    23    89    1
    33    24    25    1
    34    24    26    1
    35    24    90    1
    36    25    91    1
    37    25    92    1
    38    25    93    1
    39    26    94    1
    40    26    95    1
    41    26    96    1
    42    27    28   ar
    43    28    29   ar
    44    29    30   ar
    45    29    31    1
    46    30    33    1
    47    31    32    1
    48    32    33    1
    49    32    35    1
    50    34    97    1
    51    34    98    1
    52    34    99    1
    53    35    61    1
    54    36    37    1
    55    36    60    1
    56    37    38    1
    57    38    39    1
    58    39    40    1
    59    40    41    1
    60    41    42    1
    61    45   100    1
    62    47   101    1
    63    47   102    1
    64    47   103    1
    65    48   104    1
    66    49   105    1
    67    49   106    1
    68    49   107    1
    69    50   108    1
    70    51    59    1
    71    52   109    1
    72    52   110    1
    73    52   111    1
    74    53    54    1
    75    54    55    2
    76    54    56    1
    77    56   112    1
    78    56   113    1
    79    56   114    1
    80    57   115    1
    81    57   116    1
    82    57   117    1
    83    58   118    1
    84    58   119    1
    85    58   120    1
    86    59   121    1
    87    59   122    1
    88    59   123    1
    89    60    61    2
    90     1    47    1
    91     1    62    1
    92     2    63    1
    93     3    64    1
    94     4    65    1
    95     5     6    1
    96     7     8    2
    97     9    78    1
    98    15    79    1
    99    18    80    1
   100    18    81    1
   101    19    82    1
   102    19    83    1
   103    20    23    1
   104    21    84    1
   105    21    85    1
   106    22    86    1
   107    22    87    1
   108    27    45    1
   109    28    34    1
   110    32    58    1
   111    33    46    2
   112    36    51    1
   113    36    66    1
   114    37    52    1
   115    37    67    1
   116    38    53    1
   117    38    68    1
   118    42    48    1
   119    42    72    1
   120    43    44    2
   121    60    73    1
   122    61    74    1
   123    39    69    1
   124    39    57    1
   125    40    70    1
   126    40    50    1
   127    41    71    1
   128    41    49    1
