@<TRIPOS>MOLECULE
*****
 123 128 0 0 0
SMALL
GASTEIGER

@<TRIPOS>ATOM
     1 C         0.140095   -1.312635   5.091394 C.3        1 UNL1     0.0009
     2 C         0.996229   -2.357344   6.361297 C.2        1 UNL1     -0.0787
     3 C         1.137014   -3.614027   7.06626 C.2        1 UNL1     -0.0649
     4 C         2.332643   -4.053231   8.181577 C.2        1 UNL1     -0.0542
     5 C         2.984844   -5.138222   8.817584 C.2        1 UNL1     0.0115
     6 C         2.937423   -6.674252   9.044926 C.3        1 UNL1     -0.0348
     7 C         4.40359   -4.885217   9.524788 C.2        1 UNL1     0.2441
     8 O         4.531961   -4.767698   10.735671 O.2        1 UNL1     -0.2702
     9 N         5.519135   -5.067774   8.689096 N.am        1 UNL1     -0.2772
     10 C         5.822589   -3.898154   8.030896 C.2        1 UNL1     0.1049
     11 C         5.126144   -3.648371   6.936915 C.2        1 UNL1     0.0801
     12 C         6.191133   -1.451852   8.401188 C.ar        1 UNL1     0.0753
     13 C         5.261064   -1.23035   7.336051 C.ar        1 UNL1     0.0305
     14 C         4.799757   -2.323565   6.483332 C.2        1 UNL1     0.0924
     15 N         4.306233   -4.448025   6.233475 N.pl3        1 UNL1     -0.3170
     16 C         3.934111   -3.748515   5.032448 C.3        1 UNL1     0.1275
     17 N         4.0266   -2.2881   5.401715 N.2        1 UNL1     -0.2557
     18 C         5.034861   -3.996179   4.005455 C.3        1 UNL1     0.0016
     19 C         5.207803   -5.496494   3.830144 C.3        1 UNL1     0.0026
     20 N         3.941709   -6.064866   3.38857 N.3        1 UNL1     -0.3018
     21 C         2.807061   -5.825069   4.282684 C.3        1 UNL1     0.0026
     22 C         2.64869   -4.311872   4.440949 C.3        1 UNL1     0.0016
     23 C         4.071853   -7.4257   2.907074 C.3        1 UNL1     0.0012
     24 C         5.518796   -7.707209   2.472489 C.3        1 UNL1     -0.0339
     25 C         5.739573   -7.356625   0.991812 C.3        1 UNL1     -0.0615
     26 C         6.487662   -6.961865   3.3739 C.3        1 UNL1     -0.0615
     27 C         6.71858   -0.389456   9.131415 C.ar        1 UNL1     0.1347
     28 C         6.422597   0.935285   8.864011 C.ar        1 UNL1     0.0342
     29 C         5.467322   1.126532   7.843208 C.ar        1 UNL1     0.1435
     30 C         4.903094   0.069957   7.127305 C.ar        1 UNL1     0.0774
     31 O         5.156325   2.361077   7.391341 O.3        1 UNL1     -0.4436
     32 C         4.561258   2.136928   6.10428 C.3        1 UNL1     0.3143
     33 C         4.052027   0.710348   6.146311 C.2        1 UNL1     0.2504
     34 C         7.135774   2.130245   9.432823 C.3        1 UNL1     -0.0327
     35 O         3.411872   2.987648   6.012411 O.2        1 UNL1     -0.4528
     36 C         3.029444   3.826134   2.330186 C.3        1 UNL1     0.0854
     37 C         2.861471   2.854406   1.099311 C.3        1 UNL1     0.0236
     38 C         1.569306   3.131519   0.190871 C.3        1 UNL1     0.1131
     39 C         0.14585   3.259951   0.868772 C.3        1 UNL1     0.0200
     40 C         -0.319066   2.195265   2.065741 C.3        1 UNL1     0.0661
     41 C         -0.217157   0.503875   1.985586 C.3        1 UNL1     0.0091
     42 C         0.080281   -0.734287   3.306149 C.3        1 UNL1     0.0661
     43 C         6.644195   -2.84397   8.644095 C.2        1 UNL1     0.2131
     44 O         7.68062   -3.123878   9.218736 O.2        1 UNL1     -0.2851
     45 O         7.582276   -0.694224   10.181456 O.3        1 UNL1     -0.5056
     46 O         3.135716   0.218759   5.526175 O.2        1 UNL1     -0.2836
     47 C         -1.243453   -0.847224   5.619758 C.3        1 UNL1     -0.0566
     48 O         -1.030926   -1.620528   2.883171 O.3        1 UNL1     -0.3909
     49 C         0.664141   0.122924   0.816961 C.3        1 UNL1     -0.0577
     50 O         0.11438   2.645896   3.333328 O.3        1 UNL1     -0.3910
     51 O         1.947866   4.694753   2.581422 O.3        1 UNL1     -0.3753
     52 C         3.349796   1.406337   1.430343 C.3        1 UNL1     -0.0564
     53 O         1.614531   2.445166   -1.142995 O.3        1 UNL1     -0.4608
     54 C         1.950934   3.038565   -2.331541 C.2        1 UNL1     0.3042
     55 O         1.956126   4.241332   -2.590698 O.2        1 UNL1     -0.2512
     56 C         2.409201   2.066041   -3.38078 C.3        1 UNL1     0.0332
     57 C         -0.137405   4.816346   1.104517 C.3        1 UNL1     -0.0567
     58 C         5.707906   2.227074   5.070548 C.3        1 UNL1     0.0210
     59 C         2.072526   5.991275   1.99888 C.3        1 UNL1     0.0372
     60 C         3.351314   3.157158   3.62016 C.2        1 UNL1     -0.0208
     61 C         2.852608   3.350006   4.84198 C.2        1 UNL1     0.0882
     62 H         0.846799   -0.502765   5.309091 H        1 UNL1     0.0365
     63 H         1.695278   -1.632447   6.783584 H        1 UNL1     0.0576
     64 H         0.539797   -4.489253   6.800896 H        1 UNL1     0.0615
     65 H         2.812378   -3.104374   8.436544 H        1 UNL1     0.0622
     66 H         3.907648   4.438197   2.080818 H        1 UNL1     0.0645
     67 H         3.677348   3.145143   0.414931 H        1 UNL1     0.0362
     68 H         1.812302   4.142154   -0.171196 H        1 UNL1     0.0741
     69 H         -0.614117   3.113468   0.112862 H        1 UNL1     0.0359
     70 H         -1.411232   2.3748   2.066957 H        1 UNL1     0.0600
     71 H         -1.222647   0.268424   1.58495 H        1 UNL1     0.0348
     72 H         -0.253235   0.180342   3.817555 H        1 UNL1     0.0602
     73 H         4.19006   2.520649   3.483746 H        1 UNL1     0.0628
     74 H         1.960992   3.939535   5.058116 H        1 UNL1     0.1022
     75 H         2.849309   -7.212249   8.070334 H        1 UNL1     0.0279
     76 H         3.823729   -7.127374   9.483346 H        1 UNL1     0.0279
     77 H         2.019889   -7.000338   9.556297 H        1 UNL1     0.0279
     78 H         5.306709   -5.770062   7.983586 H        1 UNL1     0.1553
     79 H         4.313003   -5.449283   6.299581 H        1 UNL1     0.1484
     80 H         4.758348   -3.51183   3.06115 H        1 UNL1     0.0317
     81 H         5.978556   -3.542004   4.326103 H        1 UNL1     0.0317
     82 H         5.55589   -5.977166   4.756266 H        1 UNL1     0.0428
     83 H         5.998466   -5.650587   3.095189 H        1 UNL1     0.0428
     84 H         1.853871   -6.192557   3.890011 H        1 UNL1     0.0428
     85 H         2.922331   -6.352225   5.239834 H        1 UNL1     0.0428
     86 H         1.735377   -4.172076   4.988949 H        1 UNL1     0.0317
     87 H         2.433427   -3.853832   3.467832 H        1 UNL1     0.0317
     88 H         3.815735   -8.105262   3.730417 H        1 UNL1     0.0429
     89 H         3.366596   -7.629092   2.090974 H        1 UNL1     0.0429
     90 H         5.735919   -8.772429   2.615242 H        1 UNL1     0.0308
     91 H         6.217079   -6.378387   0.881627 H        1 UNL1     0.0233
     92 H         6.356997   -8.114143   0.503384 H        1 UNL1     0.0233
     93 H         4.800065   -7.31741   0.427346 H        1 UNL1     0.0233
     94 H         7.338988   -6.593949   2.791045 H        1 UNL1     0.0233
     95 H         5.989835   -6.098946   3.825012 H        1 UNL1     0.0233
     96 H         6.867608   -7.606818   4.171172 H        1 UNL1     0.0233
     97 H         7.203362   2.087022   10.515779 H        1 UNL1     0.0280
     98 H         8.169106   2.206855   9.070038 H        1 UNL1     0.0280
     99 H         6.593611   3.049478   9.156842 H        1 UNL1     0.0280
     100 H         7.179045   -0.697321   11.031761 H        1 UNL1     0.2922
     101 H         -1.84144   -0.46148   4.794368 H        1 UNL1     0.0236
     102 H         -1.17119   -0.134419   6.440532 H        1 UNL1     0.0236
     103 H         -1.834668   -1.684772   6.02617 H        1 UNL1     0.0236
     104 H         -0.927049   -1.787452   1.925927 H        1 UNL1     0.2098
     105 H         1.395167   0.87862   0.54067 H        1 UNL1     0.0234
     106 H         1.143825   -0.85161   0.907044 H        1 UNL1     0.0234
     107 H         0.0   -0.0   0.0 H        1 UNL1     0.0234
     108 H         0.257838   3.609506   3.265178 H        1 UNL1     0.2098
     109 H         4.146529   1.398868   2.187226 H        1 UNL1     0.0234
     110 H         2.539248   0.740183   1.744977 H        1 UNL1     0.0234
     111 H         3.774177   0.910527   0.547155 H        1 UNL1     0.0234
     112 H         1.542776   1.612133   -3.871312 H        1 UNL1     0.0342
     113 H         3.071294   2.531482   -4.109368 H        1 UNL1     0.0342
     114 H         2.972615   1.264711   -2.883186 H        1 UNL1     0.0342
     115 H         -0.00842   5.399228   0.182129 H        1 UNL1     0.0234
     116 H         -1.134808   5.032256   1.492612 H        1 UNL1     0.0234
     117 H         0.598701   5.301878   1.768105 H        1 UNL1     0.0234
     118 H         6.033362   3.268574   4.902142 H        1 UNL1     0.0309
     119 H         6.577558   1.61913   5.339459 H        1 UNL1     0.0309
     120 H         5.401672   1.893723   4.072949 H        1 UNL1     0.0309
     121 H         3.096128   6.328222   2.160321 H        1 UNL1     0.0524
     122 H         1.894526   5.979859   0.91066 H        1 UNL1     0.0524
     123 H         1.373278   6.680806   2.463308 H        1 UNL1     0.0524
@<TRIPOS>BOND
     1     1     2    1
     2     1    42    1
     3     2     3    2
     4     3     4    1
     5     4     5    2
     6     5     7    1
     7     6    75    1
     8     6    76    1
     9     6    77    1
    10     7     9   am
    11     9    10    1
    12    10    11    2
    13    10    43    1
    14    11    14    1
    15    11    15    1
    16    12    13   ar
    17    12    27   ar
    18    12    43    1
    19    13    14    1
    20    13    30   ar
    21    14    17    2
    22    15    16    1
    23    16    17    1
    24    16    18    1
    25    16    22    1
    26    18    19    1
    27    19    20    1
    28    20    21    1
    29    21    22    1
    30    23    24    1
    31    23    88    1
    32    23    89    1
    33    24    25    1
    34    24    26    1
    35    24    90    1
    36    25    91    1
    37    25    92    1
    38    25    93    1
    39    26    94    1
    40    26    95    1
    41    26    96    1
    42    27    28   ar
    43    28    29   ar
    44    29    30   ar
    45    29    31    1
    46    30    33    1
    47    31    32    1
    48    32    33    1
    49    32    35    1
    50    34    97    1
    51    34    98    1
    52    34    99    1
    53    35    61    1
    54    36    37    1
    55    36    60    1
    56    37    38    1
    57    38    39    1
    58    39    40    1
    59    40    41    1
    60    41    42    1
    61    45   100    1
    62    47   101    1
    63    47   102    1
    64    47   103    1
    65    48   104    1
    66    49   105    1
    67    49   106    1
    68    49   107    1
    69    50   108    1
    70    51    59    1
    71    52   109    1
    72    52   110    1
    73    52   111    1
    74    53    54    1
    75    54    55    2
    76    54    56    1
    77    56   112    1
    78    56   113    1
    79    56   114    1
    80    57   115    1
    81    57   116    1
    82    57   117    1
    83    58   118    1
    84    58   119    1
    85    58   120    1
    86    59   121    1
    87    59   122    1
    88    59   123    1
    89    60    61    2
    90     1    47    1
    91     1    62    1
    92     2    63    1
    93     3    64    1
    94     4    65    1
    95     5     6    1
    96     7     8    2
    97     9    78    1
    98    15    79    1
    99    18    80    1
   100    18    81    1
   101    19    82    1
   102    19    83    1
   103    20    23    1
   104    21    84    1
   105    21    85    1
   106    22    86    1
   107    22    87    1
   108    27    45    1
   109    28    34    1
   110    32    58    1
   111    33    46    2
   112    36    51    1
   113    36    66    1
   114    37    52    1
   115    37    67    1
   116    38    53    1
   117    38    68    1
   118    42    48    1
   119    42    72    1
   120    43    44    2
   121    60    73    1
   122    61    74    1
   123    39    69    1
   124    39    57    1
   125    40    70    1
   126    40    50    1
   127    41    71    1
   128    41    49    1
