@<TRIPOS>MOLECULE
*****
 123 128 0 0 0
SMALL
GASTEIGER

@<TRIPOS>ATOM
     1 C         -0.140949   4.037329   -1.285082 C.3        1 UNL1     0.0009
     2 C         -1.549447   4.91203   -2.114581 C.2        1 UNL1     -0.0787
     3 C         -2.15309   5.473652   -3.304641 C.2        1 UNL1     -0.0649
     4 C         -3.707946   6.121198   -3.476287 C.2        1 UNL1     -0.0542
     5 C         -4.729069   6.460632   -4.397792 C.2        1 UNL1     0.0115
     6 C         -5.05716   6.618349   -5.908025 C.3        1 UNL1     -0.0348
     7 C         -6.223198   6.683037   -3.854556 C.2        1 UNL1     0.2441
     8 O         -6.713612   7.791754   -3.690953 O.2        1 UNL1     -0.2702
     9 N         -7.018674   5.524312   -3.827599 N.am        1 UNL1     -0.2772
     10 C         -6.858228   4.859365   -2.633688 C.2        1 UNL1     0.1049
     11 C         -5.808983   4.061886   -2.548051 C.2        1 UNL1     0.0801
     12 C         -6.845404   5.205861   -0.156369 C.ar        1 UNL1     0.0753
     13 C         -5.594854   4.509739   -0.144321 C.ar        1 UNL1     0.0305
     14 C         -5.102262   3.801024   -1.323358 C.2        1 UNL1     0.0924
     15 N         -4.976241   3.623909   -3.507866 N.pl3        1 UNL1     -0.3170
     16 C         -4.105014   2.641762   -2.919134 C.3        1 UNL1     0.1275
     17 N         -4.027625   3.029884   -1.462736 N.2        1 UNL1     -0.2557
     18 C         -4.837115   1.30391   -2.962536 C.3        1 UNL1     0.0016
     19 C         -5.231038   1.011552   -4.401613 C.3        1 UNL1     0.0026
     20 N         -4.025857   0.976073   -5.218502 N.3        1 UNL1     -0.3018
     21 C         -3.220632   2.198891   -5.19206 C.3        1 UNL1     0.0026
     22 C         -2.832141   2.47104   -3.737789 C.3        1 UNL1     0.0016
     23 C         -4.253389   0.414687   -6.535209 C.3        1 UNL1     0.0012
     24 C         -4.520142   -1.095663   -6.438045 C.3        1 UNL1     -0.0339
     25 C         -3.95756   -1.845633   -7.656693 C.3        1 UNL1     -0.0615
     26 C         -3.95731   -1.641279   -5.137159 C.3        1 UNL1     -0.0615
     27 C         -7.365279   5.775981   1.003292 C.ar        1 UNL1     0.1347
     28 C         -6.747347   5.681289   2.237489 C.ar        1 UNL1     0.0342
     29 C         -5.493782   5.033784   2.215722 C.ar        1 UNL1     0.1435
     30 C         -4.943409   4.489354   1.054728 C.ar        1 UNL1     0.0774
     31 O         -4.819367   4.765315   3.355061 O.3        1 UNL1     -0.4436
     32 C         -3.892961   3.730227   2.992791 C.3        1 UNL1     0.3143
     33 C         -3.712125   3.867034   1.494527 C.2        1 UNL1     0.2504
     34 C         -7.360799   6.045121   3.560895 C.3        1 UNL1     -0.0327
     35 O         -2.634445   4.054611   3.596251 O.2        1 UNL1     -0.4528
     36 C         -0.918532   0.736938   4.272106 C.3        1 UNL1     0.0854
     37 C         -0.550638   -0.418206   3.263237 C.3        1 UNL1     0.0236
     38 C         0.994725   -0.846681   3.26079 C.3        1 UNL1     0.1131
     39 C         2.116027   0.259741   3.116622 C.3        1 UNL1     0.0200
     40 C         1.949852   1.491053   2.003655 C.3        1 UNL1     0.0661
     41 C         1.553605   1.302558   0.365037 C.3        1 UNL1     0.0091
     42 C         0.608077   2.39639   -0.764082 C.3        1 UNL1     0.0661
     43 C         -7.613777   5.223504   -1.425838 C.2        1 UNL1     0.2131
     44 O         -8.814305   5.41888   -1.483274 O.2        1 UNL1     -0.2851
     45 O         -8.565643   6.475332   0.896179 O.3        1 UNL1     -0.5056
     46 O         -2.757563   3.553463   0.819 O.2        1 UNL1     -0.2836
     47 C         1.05749   5.005418   -1.093957 C.3        1 UNL1     -0.0566
     48 O         1.602224   2.313484   -1.861313 O.3        1 UNL1     -0.3909
     49 C         1.044857   -0.104615   0.144739 C.3        1 UNL1     -0.0577
     50 O         1.223274   2.570601   2.555364 O.3        1 UNL1     -0.3910
     51 O         0.168951   1.364604   4.91308 O.3        1 UNL1     -0.3753
     52 C         -1.391199   -0.331287   1.947618 C.3        1 UNL1     -0.0564
     53 O         1.254232   -2.154543   2.571966 O.3        1 UNL1     -0.4608
     54 C         2.34819   -2.442506   1.798492 C.2        1 UNL1     0.3042
     55 O         2.404856   -2.481839   0.570046 O.2        1 UNL1     -0.2512
     56 C         3.602342   -2.673067   2.592632 C.3        1 UNL1     0.0332
     57 C         2.60322   0.647486   4.589873 C.3        1 UNL1     -0.0567
     58 C         -4.599819   2.38713   3.289392 C.3        1 UNL1     0.0210
     59 C         0.313527   1.04743   6.296685 C.3        1 UNL1     0.0372
     60 C         -1.766307   1.820829   3.704993 C.2        1 UNL1     -0.0208
     61 C         -1.665404   3.145892   3.818009 C.2        1 UNL1     0.0882
     62 H         -0.708733   4.053177   -0.346955 H        1 UNL1     0.0365
     63 H         -2.193269   5.119732   -1.257362 H        1 UNL1     0.0576
     64 H         -1.683769   5.374314   -4.285955 H        1 UNL1     0.0615
     65 H         -4.050886   6.252112   -2.446367 H        1 UNL1     0.0622
     66 H         -1.531243   0.246578   5.041637 H        1 UNL1     0.0645
     67 H         -1.026303   -1.314815   3.697281 H        1 UNL1     0.0362
     68 H         1.083821   -1.219687   4.292513 H        1 UNL1     0.0741
     69 H         3.037076   -0.216362   2.80775 H        1 UNL1     0.0359
     70 H         2.99492   1.853278   1.962572 H        1 UNL1     0.0600
     71 H         2.568873   1.237355   -0.073069 H        1 UNL1     0.0348
     72 H         0.927516   3.030649   0.075554 H        1 UNL1     0.0602
     73 H         -2.621467   1.391054   3.24538 H        1 UNL1     0.0628
     74 H         -0.796401   3.665877   4.222592 H        1 UNL1     0.1022
     75 H         -4.258137   7.203715   -6.423722 H        1 UNL1     0.0279
     76 H         -5.092896   5.703243   -6.494857 H        1 UNL1     0.0279
     77 H         -5.939194   7.250313   -6.087855 H        1 UNL1     0.0279
     78 H         -6.728513   4.892849   -4.571331 H        1 UNL1     0.1553
     79 H         -5.198237   3.636958   -4.486375 H        1 UNL1     0.1484
     80 H         -4.179714   0.523413   -2.560773 H        1 UNL1     0.0317
     81 H         -5.726723   1.323776   -2.323902 H        1 UNL1     0.0317
     82 H         -5.948035   1.751927   -4.785895 H        1 UNL1     0.0428
     83 H         -5.753174   0.054283   -4.409413 H        1 UNL1     0.0428
     84 H         -2.281963   2.118098   -5.749004 H        1 UNL1     0.0428
     85 H         -3.741312   3.041566   -5.667568 H        1 UNL1     0.0428
     86 H         -2.138387   3.290508   -3.771912 H        1 UNL1     0.0317
     87 H         -2.227136   1.642292   -3.35018 H        1 UNL1     0.0317
     88 H         -5.140038   0.899274   -6.964539 H        1 UNL1     0.0429
     89 H         -3.413321   0.625866   -7.209347 H        1 UNL1     0.0429
     90 H         -5.602118   -1.26705   -6.391503 H        1 UNL1     0.0308
     91 H         -2.939575   -1.519117   -7.889495 H        1 UNL1     0.0233
     92 H         -3.956838   -2.92381   -7.480217 H        1 UNL1     0.0233
     93 H         -4.557917   -1.684063   -8.560187 H        1 UNL1     0.0233
     94 H         -3.788641   -2.720277   -5.221715 H        1 UNL1     0.0233
     95 H         -2.997187   -1.166209   -4.917079 H        1 UNL1     0.0233
     96 H         -4.639398   -1.462601   -4.301218 H        1 UNL1     0.0233
     97 H         -7.380479   5.20295   4.246162 H        1 UNL1     0.0280
     98 H         -6.799091   6.836793   4.073727 H        1 UNL1     0.0280
     99 H         -8.396683   6.388498   3.405547 H        1 UNL1     0.0280
     100 H         -8.591583   7.103627   0.19604 H        1 UNL1     0.2922
     101 H         1.11864   5.313261   -0.050333 H        1 UNL1     0.0236
     102 H         1.031644   5.858481   -1.771155 H        1 UNL1     0.0236
     103 H         2.023456   4.51395   -1.297826 H        1 UNL1     0.0236
     104 H         2.27422   1.653379   -1.601211 H        1 UNL1     0.2098
     105 H         1.454584   -0.598035   -0.733027 H        1 UNL1     0.0234
     106 H         1.119721   -0.757271   1.01443 H        1 UNL1     0.0234
     107 H         -0.0   0.0   0.0 H        1 UNL1     0.0234
     108 H         1.866128   3.155335   3.001002 H        1 UNL1     0.2098
     109 H         -2.470011   -0.42182   2.136507 H        1 UNL1     0.0234
     110 H         -1.195296   0.579188   1.371075 H        1 UNL1     0.0234
     111 H         -1.141689   -1.144799   1.253437 H        1 UNL1     0.0234
     112 H         4.438626   -2.876394   1.916885 H        1 UNL1     0.0342
     113 H         3.828163   -1.837405   3.253326 H        1 UNL1     0.0342
     114 H         3.452481   -3.562435   3.220112 H        1 UNL1     0.0342
     115 H         3.673966   0.892592   4.614656 H        1 UNL1     0.0234
     116 H         2.063503   1.488944   5.028853 H        1 UNL1     0.0234
     117 H         2.560618   -0.19373   5.302952 H        1 UNL1     0.0234
     118 H         -4.144228   1.858989   4.14526 H        1 UNL1     0.0309
     119 H         -5.674274   2.497203   3.467248 H        1 UNL1     0.0309
     120 H         -4.500431   1.669382   2.467768 H        1 UNL1     0.0309
     121 H         0.83295   1.878544   6.772925 H        1 UNL1     0.0524
     122 H         -0.659127   0.930036   6.802848 H        1 UNL1     0.0524
     123 H         0.885163   0.131219   6.414516 H        1 UNL1     0.0524
@<TRIPOS>BOND
     1     1     2    1
     2     1    42    1
     3     2     3    2
     4     3     4    1
     5     4     5    2
     6     5     7    1
     7     6    75    1
     8     6    76    1
     9     6    77    1
    10     7     9   am
    11     9    10    1
    12    10    11    2
    13    10    43    1
    14    11    14    1
    15    11    15    1
    16    12    13   ar
    17    12    27   ar
    18    12    43    1
    19    13    14    1
    20    13    30   ar
    21    14    17    2
    22    15    16    1
    23    16    17    1
    24    16    18    1
    25    16    22    1
    26    18    19    1
    27    19    20    1
    28    20    21    1
    29    21    22    1
    30    23    24    1
    31    23    88    1
    32    23    89    1
    33    24    25    1
    34    24    26    1
    35    24    90    1
    36    25    91    1
    37    25    92    1
    38    25    93    1
    39    26    94    1
    40    26    95    1
    41    26    96    1
    42    27    28   ar
    43    28    29   ar
    44    29    30   ar
    45    29    31    1
    46    30    33    1
    47    31    32    1
    48    32    33    1
    49    32    35    1
    50    34    97    1
    51    34    98    1
    52    34    99    1
    53    35    61    1
    54    36    37    1
    55    36    60    1
    56    37    38    1
    57    38    39    1
    58    39    40    1
    59    40    41    1
    60    41    42    1
    61    45   100    1
    62    47   101    1
    63    47   102    1
    64    47   103    1
    65    48   104    1
    66    49   105    1
    67    49   106    1
    68    49   107    1
    69    50   108    1
    70    51    59    1
    71    52   109    1
    72    52   110    1
    73    52   111    1
    74    53    54    1
    75    54    55    2
    76    54    56    1
    77    56   112    1
    78    56   113    1
    79    56   114    1
    80    57   115    1
    81    57   116    1
    82    57   117    1
    83    58   118    1
    84    58   119    1
    85    58   120    1
    86    59   121    1
    87    59   122    1
    88    59   123    1
    89    60    61    2
    90     1    47    1
    91     1    62    1
    92     2    63    1
    93     3    64    1
    94     4    65    1
    95     5     6    1
    96     7     8    2
    97     9    78    1
    98    15    79    1
    99    18    80    1
   100    18    81    1
   101    19    82    1
   102    19    83    1
   103    20    23    1
   104    21    84    1
   105    21    85    1
   106    22    86    1
   107    22    87    1
   108    27    45    1
   109    28    34    1
   110    32    58    1
   111    33    46    2
   112    36    51    1
   113    36    66    1
   114    37    52    1
   115    37    67    1
   116    38    53    1
   117    38    68    1
   118    42    48    1
   119    42    72    1
   120    43    44    2
   121    60    73    1
   122    61    74    1
   123    39    69    1
   124    39    57    1
   125    40    70    1
   126    40    50    1
   127    41    71    1
   128    41    49    1
