@<TRIPOS>MOLECULE
*****
 123 128 0 0 0
SMALL
GASTEIGER

@<TRIPOS>ATOM
     1 C         5.165593   1.762998   0.455799 C.3        1 UNL1     0.0009
     2 C         6.595082   2.570616   -0.405219 C.2        1 UNL1     -0.0787
     3 C         7.873168   2.474011   -1.078428 C.2        1 UNL1     -0.0649
     4 C         8.742914   3.709468   -1.842329 C.2        1 UNL1     -0.0542
     5 C         9.756518   4.002359   -2.787792 C.2        1 UNL1     0.0115
     6 C         10.881056   3.377618   -3.658675 C.3        1 UNL1     -0.0348
     7 C         9.844443   5.484347   -3.398504 C.2        1 UNL1     0.2441
     8 O         10.668506   6.308996   -3.02783 O.2        1 UNL1     -0.2702
     9 N         9.086654   5.686531   -4.565136 N.am        1 UNL1     -0.2772
     10 C         7.80488   6.070757   -4.244595 C.2        1 UNL1     0.1049
     11 C         6.963331   5.097943   -3.945175 C.2        1 UNL1     0.0801
     12 C         6.510955   7.677618   -2.829997 C.ar        1 UNL1     0.0753
     13 C         5.757467   6.548906   -2.375164 C.ar        1 UNL1     0.0305
     14 C         5.873809   5.241912   -3.018034 C.2        1 UNL1     0.0924
     15 N         7.088354   3.768889   -4.101736 N.pl3        1 UNL1     -0.3170
     16 C         5.821933   3.167304   -3.778429 C.3        1 UNL1     0.1275
     17 N         5.189037   4.123353   -2.797035 N.2        1 UNL1     -0.2557
     18 C         4.961333   3.221103   -5.03707 C.3        1 UNL1     0.0016
     19 C         5.711124   2.536125   -6.168532 C.3        1 UNL1     0.0026
     20 N         5.987075   1.159665   -5.780926 N.3        1 UNL1     -0.3018
     21 C         6.758295   1.004257   -4.54584 C.3        1 UNL1     0.0026
     22 C         5.984578   1.695585   -3.421864 C.3        1 UNL1     0.0016
     23 C         6.426955   0.338507   -6.891263 C.3        1 UNL1     0.0012
     24 C         5.266244   0.083697   -7.865726 C.3        1 UNL1     -0.0339
     25 C         5.351637   1.003499   -9.094844 C.3        1 UNL1     -0.0615
     26 C         5.233587   -1.381312   -8.265052 C.3        1 UNL1     -0.0615
     27 C         6.306344   8.946124   -2.292273 C.ar        1 UNL1     0.1347
     28 C         5.352414   9.215632   -1.327166 C.ar        1 UNL1     0.0342
     29 C         4.656515   8.080563   -0.859718 C.ar        1 UNL1     0.1435
     30 C         4.87615   6.797845   -1.363321 C.ar        1 UNL1     0.0774
     31 O         3.620407   8.193621   -0.000239 O.3        1 UNL1     -0.4436
     32 C         2.901008   6.958641   -0.135006 C.3        1 UNL1     0.3143
     33 C         3.913586   5.966774   -0.67082 C.2        1 UNL1     0.2504
     34 C         4.904786   10.581694   -0.887162 C.3        1 UNL1     -0.0327
     35 O         2.549427   6.524297   1.184459 O.2        1 UNL1     -0.4528
     36 C         -0.691054   4.58298   0.812085 C.3        1 UNL1     0.0854
     37 C         -0.998579   3.319411   -0.080297 C.3        1 UNL1     0.0236
     38 C         -1.591174   2.058818   0.71436 C.3        1 UNL1     0.1131
     39 C         -0.856231   1.53294   2.012659 C.3        1 UNL1     0.0200
     40 C         0.805543   1.391677   2.044145 C.3        1 UNL1     0.0661
     41 C         1.75978   0.622366   0.871455 C.3        1 UNL1     0.0091
     42 C         3.463008   0.987817   0.296248 C.3        1 UNL1     0.0661
     43 C         7.454734   7.469526   -3.956157 C.2        1 UNL1     0.2131
     44 O         7.847997   8.366821   -4.679306 O.2        1 UNL1     -0.2851
     45 O         7.113206   9.98213   -2.758217 O.3        1 UNL1     -0.5056
     46 O         3.93341   4.763612   -0.537172 O.2        1 UNL1     -0.2836
     47 C         5.57172   1.338093   1.892636 C.3        1 UNL1     -0.0566
     48 O         3.915626   -0.421948   0.378804 O.3        1 UNL1     -0.3909
     49 C         0.91871   0.384598   -0.362872 C.3        1 UNL1     -0.0577
     50 O         1.40502   2.612017   2.430305 O.3        1 UNL1     -0.3910
     51 O         -0.806255   4.396453   2.204697 O.3        1 UNL1     -0.3753
     52 C         0.039298   3.158703   -1.238716 C.3        1 UNL1     -0.0564
     53 O         -2.196571   1.016088   -0.179248 O.3        1 UNL1     -0.4608
     54 C         -2.394463   -0.298489   0.153401 C.2        1 UNL1     0.3042
     55 O         -1.719832   -1.266722   -0.194789 O.2        1 UNL1     -0.2512
     56 C         -3.54509   -0.513967   1.094857 C.3        1 UNL1     0.0332
     57 C         -1.571316   2.203254   3.276584 C.3        1 UNL1     -0.0567
     58 C         1.818665   7.19833   -1.213252 C.3        1 UNL1     0.0210
     59 C         -1.117956   5.576505   2.943741 C.3        1 UNL1     0.0372
     60 C         0.634929   5.214827   0.571879 C.2        1 UNL1     -0.0208
     61 C         1.551998   5.654515   1.434667 C.2        1 UNL1     0.0882
     62 H         4.687723   2.746186   0.543509 H        1 UNL1     0.0365
     63 H         6.326813   3.624002   -0.300914 H        1 UNL1     0.0576
     64 H         8.33192   1.507767   -1.299847 H        1 UNL1     0.0615
     65 H         8.255624   4.624499   -1.494837 H        1 UNL1     0.0622
     66 H         -1.43945   5.326859   0.504526 H        1 UNL1     0.0645
     67 H         -1.868586   3.625077   -0.687105 H        1 UNL1     0.0362
     68 H         -2.537202   2.494188   1.070739 H        1 UNL1     0.0741
     69 H         -1.18401   0.521502   2.212567 H        1 UNL1     0.0359
     70 H         0.924312   0.733827   2.926295 H        1 UNL1     0.0600
     71 H         1.808524   -0.397619   1.300653 H        1 UNL1     0.0348
     72 H         3.361818   1.478196   1.275332 H        1 UNL1     0.0602
     73 H         0.746056   5.409786   -0.465854 H        1 UNL1     0.0628
     74 H         1.541454   5.446476   2.505109 H        1 UNL1     0.1022
     75 H         10.877702   2.26493   -3.564084 H        1 UNL1     0.0279
     76 H         10.798727   3.521586   -4.733646 H        1 UNL1     0.0279
     77 H         11.888639   3.623293   -3.292451 H        1 UNL1     0.0279
     78 H         9.023679   4.815122   -5.087399 H        1 UNL1     0.1553
     79 H         7.750957   3.341031   -4.722081 H        1 UNL1     0.1484
     80 H         4.002487   2.728243   -4.835902 H        1 UNL1     0.0317
     81 H         4.730471   4.256605   -5.309266 H        1 UNL1     0.0317
     82 H         6.638925   3.069142   -6.423466 H        1 UNL1     0.0428
     83 H         5.080452   2.587472   -7.056601 H        1 UNL1     0.0428
     84 H         6.883117   -0.037614   -4.234818 H        1 UNL1     0.0428
     85 H         7.786808   1.374616   -4.656806 H        1 UNL1     0.0428
     86 H         6.507115   1.448787   -2.516307 H        1 UNL1     0.0317
     87 H         5.007118   1.215804   -3.289661 H        1 UNL1     0.0317
     88 H         7.218443   0.880983   -7.424706 H        1 UNL1     0.0429
     89 H         6.864054   -0.605297   -6.540616 H        1 UNL1     0.0429
     90 H         4.316956   0.275225   -7.351545 H        1 UNL1     0.0308
     91 H         6.366702   1.029552   -9.502358 H        1 UNL1     0.0233
     92 H         4.660835   0.672434   -9.873816 H        1 UNL1     0.0233
     93 H         5.075842   2.039028   -8.861496 H        1 UNL1     0.0233
     94 H         4.613584   -1.515661   -9.158015 H        1 UNL1     0.0233
     95 H         6.243962   -1.726862   -8.50106 H        1 UNL1     0.0233
     96 H         4.825565   -2.004226   -7.464137 H        1 UNL1     0.0233
     97 H         4.061154   10.533964   -0.205079 H        1 UNL1     0.0280
     98 H         5.694818   11.123165   -0.350585 H        1 UNL1     0.0280
     99 H         4.604283   11.172954   -1.767619 H        1 UNL1     0.0280
     100 H         6.643278   10.743598   -3.049692 H        1 UNL1     0.2922
     101 H         4.689995   1.007924   2.441458 H        1 UNL1     0.0236
     102 H         6.121625   2.110801   2.428836 H        1 UNL1     0.0236
     103 H         6.244217   0.464057   1.891524 H        1 UNL1     0.0236
     104 H         4.252914   -0.570925   1.283797 H        1 UNL1     0.2098
     105 H         0.700326   1.281455   -0.937126 H        1 UNL1     0.0234
     106 H         1.286114   -0.404132   -1.019261 H        1 UNL1     0.0234
     107 H         0.0   -0.0   0.0 H        1 UNL1     0.0234
     108 H         1.25447   3.250818   1.707093 H        1 UNL1     0.2098
     109 H         1.068113   3.061149   -0.864905 H        1 UNL1     0.0234
     110 H         -0.188432   2.321745   -1.907584 H        1 UNL1     0.0234
     111 H         0.045488   4.034661   -1.900988 H        1 UNL1     0.0234
     112 H         -3.634876   -1.577626   1.33551 H        1 UNL1     0.0342
     113 H         -3.451615   0.084783   1.999625 H        1 UNL1     0.0342
     114 H         -4.468014   -0.204944   0.585071 H        1 UNL1     0.0342
     115 H         -2.659305   2.051132   3.258526 H        1 UNL1     0.0234
     116 H         -1.204834   1.839556   4.238595 H        1 UNL1     0.0234
     117 H         -1.510298   3.305148   3.283411 H        1 UNL1     0.0234
     118 H         0.917025   7.679766   -0.795794 H        1 UNL1     0.0309
     119 H         2.180135   7.789015   -2.060974 H        1 UNL1     0.0309
     120 H         1.433187   6.264452   -1.636789 H        1 UNL1     0.0309
     121 H         -0.830108   5.402112   3.980122 H        1 UNL1     0.0524
     122 H         -0.555248   6.454903   2.586229 H        1 UNL1     0.0524
     123 H         -2.181336   5.789476   2.880823 H        1 UNL1     0.0524
@<TRIPOS>BOND
     1     1     2    1
     2     1    42    1
     3     2     3    2
     4     3     4    1
     5     4     5    2
     6     5     7    1
     7     6    75    1
     8     6    76    1
     9     6    77    1
    10     7     9   am
    11     9    10    1
    12    10    11    2
    13    10    43    1
    14    11    14    1
    15    11    15    1
    16    12    13   ar
    17    12    27   ar
    18    12    43    1
    19    13    14    1
    20    13    30   ar
    21    14    17    2
    22    15    16    1
    23    16    17    1
    24    16    18    1
    25    16    22    1
    26    18    19    1
    27    19    20    1
    28    20    21    1
    29    21    22    1
    30    23    24    1
    31    23    88    1
    32    23    89    1
    33    24    25    1
    34    24    26    1
    35    24    90    1
    36    25    91    1
    37    25    92    1
    38    25    93    1
    39    26    94    1
    40    26    95    1
    41    26    96    1
    42    27    28   ar
    43    28    29   ar
    44    29    30   ar
    45    29    31    1
    46    30    33    1
    47    31    32    1
    48    32    33    1
    49    32    35    1
    50    34    97    1
    51    34    98    1
    52    34    99    1
    53    35    61    1
    54    36    37    1
    55    36    60    1
    56    37    38    1
    57    38    39    1
    58    39    40    1
    59    40    41    1
    60    41    42    1
    61    45   100    1
    62    47   101    1
    63    47   102    1
    64    47   103    1
    65    48   104    1
    66    49   105    1
    67    49   106    1
    68    49   107    1
    69    50   108    1
    70    51    59    1
    71    52   109    1
    72    52   110    1
    73    52   111    1
    74    53    54    1
    75    54    55    2
    76    54    56    1
    77    56   112    1
    78    56   113    1
    79    56   114    1
    80    57   115    1
    81    57   116    1
    82    57   117    1
    83    58   118    1
    84    58   119    1
    85    58   120    1
    86    59   121    1
    87    59   122    1
    88    59   123    1
    89    60    61    2
    90     1    47    1
    91     1    62    1
    92     2    63    1
    93     3    64    1
    94     4    65    1
    95     5     6    1
    96     7     8    2
    97     9    78    1
    98    15    79    1
    99    18    80    1
   100    18    81    1
   101    19    82    1
   102    19    83    1
   103    20    23    1
   104    21    84    1
   105    21    85    1
   106    22    86    1
   107    22    87    1
   108    27    45    1
   109    28    34    1
   110    32    58    1
   111    33    46    2
   112    36    51    1
   113    36    66    1
   114    37    52    1
   115    37    67    1
   116    38    53    1
   117    38    68    1
   118    42    48    1
   119    42    72    1
   120    43    44    2
   121    60    73    1
   122    61    74    1
   123    39    69    1
   124    39    57    1
   125    40    70    1
   126    40    50    1
   127    41    71    1
   128    41    49    1
