@<TRIPOS>MOLECULE
*****
 123 128 0 0 0
SMALL
GASTEIGER

@<TRIPOS>ATOM
     1 C         -0.73997   4.707382   -2.693488 C.3        1 UNL1     0.0009
     2 C         -0.140804   5.781313   -4.080827 C.2        1 UNL1     -0.0787
     3 C         0.577931   6.949314   -4.544765 C.2        1 UNL1     -0.0649
     4 C         0.919437   7.394519   -6.142114 C.2        1 UNL1     -0.0542
     5 C         1.753242   8.18029   -6.975428 C.2        1 UNL1     0.0115
     6 C         2.828502   9.301508   -6.978627 C.3        1 UNL1     -0.0348
     7 C         1.835837   7.833396   -8.540622 C.2        1 UNL1     0.2441
     8 O         1.244816   8.476845   -9.396889 O.2        1 UNL1     -0.2702
     9 N         2.835283   6.907397   -8.886719 N.am        1 UNL1     -0.2772
     10 C         2.352155   5.622353   -8.794137 C.2        1 UNL1     0.1049
     11 C         2.36119   5.082569   -7.588826 C.2        1 UNL1     0.0801
     12 C         0.429364   4.172541   -9.471082 C.ar        1 UNL1     0.0753
     13 C         0.347888   3.774509   -8.098661 C.ar        1 UNL1     0.0305
     14 C         1.395307   4.117039   -7.139162 C.2        1 UNL1     0.0924
     15 N         2.95852   5.500491   -6.459638 N.pl3        1 UNL1     -0.3170
     16 C         2.803337   4.466041   -5.471667 C.3        1 UNL1     0.1275
     17 N         1.533401   3.753037   -5.867408 N.2        1 UNL1     -0.2557
     18 C         3.93483   3.46482   -5.683753 C.3        1 UNL1     0.0016
     19 C         5.26014   4.206555   -5.613239 C.3        1 UNL1     0.0026
     20 N         5.367249   4.850216   -4.311219 N.3        1 UNL1     -0.3018
     21 C         4.288256   5.786667   -3.98997 C.3        1 UNL1     0.0026
     22 C         2.966884   5.019431   -4.062213 C.3        1 UNL1     0.0016
     23 C         6.705486   5.328805   -4.02711 C.3        1 UNL1     0.0012
     24 C         6.864024   5.626593   -2.527796 C.3        1 UNL1     -0.0339
     25 C         7.686908   6.903836   -2.292066 C.3        1 UNL1     -0.0615
     26 C         5.499373   5.710804   -1.866423 C.3        1 UNL1     -0.0615
     27 C         -0.509819   3.740872   -10.404739 C.ar        1 UNL1     0.1347
     28 C         -1.547877   2.880716   -10.093906 C.ar        1 UNL1     0.0342
     29 C         -1.636731   2.541247   -8.727147 C.ar        1 UNL1     0.1435
     30 C         -0.724294   2.995108   -7.773894 C.ar        1 UNL1     0.0774
     31 O         -2.52637   1.625928   -8.284722 O.3        1 UNL1     -0.4436
     32 C         -2.015809   1.211211   -7.008709 C.3        1 UNL1     0.3143
     33 C         -1.137739   2.35489   -6.542655 C.2        1 UNL1     0.2504
     34 C         -2.437717   2.179378   -11.08204 C.3        1 UNL1     -0.0327
     35 O         -3.127116   1.144068   -6.106634 O.2        1 UNL1     -0.4528
     36 C         -2.260271   -1.559199   -3.586909 C.3        1 UNL1     0.0854
     37 C         -1.009936   -1.666795   -2.631603 C.3        1 UNL1     0.0236
     38 C         -1.360575   -1.835272   -1.075835 C.3        1 UNL1     0.1131
     39 C         -2.376589   -0.837229   -0.387435 C.3        1 UNL1     0.0200
     40 C         -2.290538   0.800324   -0.693136 C.3        1 UNL1     0.0661
     41 C         -0.889774   1.75379   -0.613289 C.3        1 UNL1     0.0091
     42 C         -0.400433   3.233166   -1.581479 C.3        1 UNL1     0.0661
     43 C         1.598072   4.9878   -9.885491 C.2        1 UNL1     0.2131
     44 O         1.994766   5.060234   -11.034458 O.2        1 UNL1     -0.2851
     45 O         -0.38466   4.211019   -11.710394 O.3        1 UNL1     -0.5056
     46 O         -0.860086   2.678325   -5.409451 O.2        1 UNL1     -0.2836
     47 C         -1.933738   5.382346   -1.965943 C.3        1 UNL1     -0.0566
     48 O         0.012282   4.016117   -0.391618 O.3        1 UNL1     -0.3909
     49 C         0.317211   0.844099   -0.55722 C.3        1 UNL1     -0.0577
     50 O         -3.037809   1.135016   -1.845217 O.3        1 UNL1     -0.3910
     51 O         -3.513645   -1.448678   -2.951088 O.3        1 UNL1     -0.3753
     52 C         0.177156   -0.776362   -3.124439 C.3        1 UNL1     -0.0564
     53 O         -0.195258   -2.282537   -0.242578 O.3        1 UNL1     -0.4608
     54 C         -0.158051   -2.301751   1.127157 C.2        1 UNL1     0.3042
     55 O         0.698628   -2.817766   1.843864 O.2        1 UNL1     -0.2512
     56 C         -1.285421   -1.54517   1.770069 C.3        1 UNL1     0.0332
     57 C         -3.820268   -1.525225   -0.412485 C.3        1 UNL1     -0.0567
     58 C         -1.125486   -0.024972   -7.274611 C.3        1 UNL1     0.0210
     59 C         -4.398188   -0.491678   -3.532123 C.3        1 UNL1     0.0372
     60 C         -2.190997   -0.464082   -4.592433 C.2        1 UNL1     -0.0208
     61 C         -3.11265   0.423356   -4.968938 C.2        1 UNL1     0.0882
     62 H         -1.171258   4.023634   -3.434562 H        1 UNL1     0.0365
     63 H         -0.602579   5.284692   -4.936748 H        1 UNL1     0.0576
     64 H         1.12864   7.593628   -3.855789 H        1 UNL1     0.0615
     65 H         0.266003   6.750977   -6.737396 H        1 UNL1     0.0622
     66 H         -2.250488   -2.49643   -4.160972 H        1 UNL1     0.0645
     67 H         -0.57678   -2.654442   -2.867163 H        1 UNL1     0.0362
     68 H         -1.880736   -2.804751   -1.108448 H        1 UNL1     0.0741
     69 H         -2.23979   -0.885813   0.684635 H        1 UNL1     0.0359
     70 H         -2.895976   1.183835   0.150324 H        1 UNL1     0.0600
     71 H         -0.950475   2.098852   0.437523 H        1 UNL1     0.0348
     72 H         -1.490458   3.142975   -1.695614 H        1 UNL1     0.0602
     73 H         -1.274709   -0.535467   -5.124004 H        1 UNL1     0.0628
     74 H         -4.051214   0.598852   -4.44212 H        1 UNL1     0.1022
     75 H         3.851802   8.863055   -7.066098 H        1 UNL1     0.0279
     76 H         2.800154   9.998482   -7.813188 H        1 UNL1     0.0279
     77 H         2.89901   9.825862   -6.014375 H        1 UNL1     0.0279
     78 H         3.616   6.988574   -8.238668 H        1 UNL1     0.1553
     79 H         3.713005   6.161793   -6.440545 H        1 UNL1     0.1484
     80 H         3.87091   2.684995   -4.915278 H        1 UNL1     0.0317
     81 H         3.835034   2.960664   -6.650975 H        1 UNL1     0.0317
     82 H         5.35996   4.940072   -6.426813 H        1 UNL1     0.0428
     83 H         6.053051   3.474341   -5.768816 H        1 UNL1     0.0428
     84 H         4.349268   6.19519   -2.976462 H        1 UNL1     0.0428
     85 H         4.311123   6.674277   -4.637228 H        1 UNL1     0.0428
     86 H         2.218468   5.696447   -3.694096 H        1 UNL1     0.0317
     87 H         2.962747   4.209802   -3.322225 H        1 UNL1     0.0317
     88 H         7.416449   4.539298   -4.303707 H        1 UNL1     0.0429
     89 H         6.951116   6.209819   -4.63395 H        1 UNL1     0.0429
     90 H         7.378485   4.786078   -2.047089 H        1 UNL1     0.0308
     91 H         7.743593   7.513459   -3.198846 H        1 UNL1     0.0233
     92 H         7.252767   7.499761   -1.485838 H        1 UNL1     0.0233
     93 H         8.718535   6.686192   -1.990053 H        1 UNL1     0.0233
     94 H         4.710578   5.521686   -2.602543 H        1 UNL1     0.0233
     95 H         5.416996   4.953356   -1.081917 H        1 UNL1     0.0233
     96 H         5.330332   6.69669   -1.424357 H        1 UNL1     0.0233
     97 H         -2.124442   2.352895   -12.107214 H        1 UNL1     0.0280
     98 H         -2.42978   1.09007   -10.94565 H        1 UNL1     0.0280
     99 H         -3.472137   2.543551   -10.970465 H        1 UNL1     0.0280
     100 H         0.179745   3.695832   -12.259623 H        1 UNL1     0.2922
     101 H         -2.247748   6.267843   -2.518166 H        1 UNL1     0.0236
     102 H         -1.727683   5.60468   -0.919476 H        1 UNL1     0.0236
     103 H         -2.825943   4.734479   -1.945181 H        1 UNL1     0.0236
     104 H         -0.624455   4.749857   -0.285969 H        1 UNL1     0.2098
     105 H         0.660222   0.492747   -1.52712 H        1 UNL1     0.0234
     106 H         1.154727   1.233879   0.021196 H        1 UNL1     0.0234
     107 H         0.0   0.0   0.0 H        1 UNL1     0.0234
     108 H         -3.533474   1.951678   -1.642368 H        1 UNL1     0.2098
     109 H         0.148911   0.232479   -2.68952 H        1 UNL1     0.0234
     110 H         1.158403   -1.227155   -2.940911 H        1 UNL1     0.0234
     111 H         0.149984   -0.631753   -4.212693 H        1 UNL1     0.0234
     112 H         -0.960977   -1.142085   2.734229 H        1 UNL1     0.0342
     113 H         -1.668789   -0.755569   1.125551 H        1 UNL1     0.0342
     114 H         -2.107472   -2.249272   1.958846 H        1 UNL1     0.0342
     115 H         -3.820764   -2.49259   0.10847 H        1 UNL1     0.0234
     116 H         -4.610775   -0.914544   0.028215 H        1 UNL1     0.0234
     117 H         -4.146269   -1.827064   -1.422711 H        1 UNL1     0.0234
     118 H         -1.042088   -0.674734   -6.38587 H        1 UNL1     0.0309
     119 H         -1.465032   -0.623938   -8.125582 H        1 UNL1     0.0309
     120 H         -0.085491   0.244325   -7.489075 H        1 UNL1     0.0309
     121 H         -5.382608   -0.641296   -3.089531 H        1 UNL1     0.0524
     122 H         -4.091828   0.545651   -3.317346 H        1 UNL1     0.0524
     123 H         -4.446337   -0.629388   -4.608604 H        1 UNL1     0.0524
@<TRIPOS>BOND
     1     1     2    1
     2     1    42    1
     3     2     3    2
     4     3     4    1
     5     4     5    2
     6     5     7    1
     7     6    75    1
     8     6    76    1
     9     6    77    1
    10     7     9   am
    11     9    10    1
    12    10    11    2
    13    10    43    1
    14    11    14    1
    15    11    15    1
    16    12    13   ar
    17    12    27   ar
    18    12    43    1
    19    13    14    1
    20    13    30   ar
    21    14    17    2
    22    15    16    1
    23    16    17    1
    24    16    18    1
    25    16    22    1
    26    18    19    1
    27    19    20    1
    28    20    21    1
    29    21    22    1
    30    23    24    1
    31    23    88    1
    32    23    89    1
    33    24    25    1
    34    24    26    1
    35    24    90    1
    36    25    91    1
    37    25    92    1
    38    25    93    1
    39    26    94    1
    40    26    95    1
    41    26    96    1
    42    27    28   ar
    43    28    29   ar
    44    29    30   ar
    45    29    31    1
    46    30    33    1
    47    31    32    1
    48    32    33    1
    49    32    35    1
    50    34    97    1
    51    34    98    1
    52    34    99    1
    53    35    61    1
    54    36    37    1
    55    36    60    1
    56    37    38    1
    57    38    39    1
    58    39    40    1
    59    40    41    1
    60    41    42    1
    61    45   100    1
    62    47   101    1
    63    47   102    1
    64    47   103    1
    65    48   104    1
    66    49   105    1
    67    49   106    1
    68    49   107    1
    69    50   108    1
    70    51    59    1
    71    52   109    1
    72    52   110    1
    73    52   111    1
    74    53    54    1
    75    54    55    2
    76    54    56    1
    77    56   112    1
    78    56   113    1
    79    56   114    1
    80    57   115    1
    81    57   116    1
    82    57   117    1
    83    58   118    1
    84    58   119    1
    85    58   120    1
    86    59   121    1
    87    59   122    1
    88    59   123    1
    89    60    61    2
    90     1    47    1
    91     1    62    1
    92     2    63    1
    93     3    64    1
    94     4    65    1
    95     5     6    1
    96     7     8    2
    97     9    78    1
    98    15    79    1
    99    18    80    1
   100    18    81    1
   101    19    82    1
   102    19    83    1
   103    20    23    1
   104    21    84    1
   105    21    85    1
   106    22    86    1
   107    22    87    1
   108    27    45    1
   109    28    34    1
   110    32    58    1
   111    33    46    2
   112    36    51    1
   113    36    66    1
   114    37    52    1
   115    37    67    1
   116    38    53    1
   117    38    68    1
   118    42    48    1
   119    42    72    1
   120    43    44    2
   121    60    73    1
   122    61    74    1
   123    39    69    1
   124    39    57    1
   125    40    70    1
   126    40    50    1
   127    41    71    1
   128    41    49    1
