@<TRIPOS>MOLECULE
*****
 123 128 0 0 0
SMALL
GASTEIGER

@<TRIPOS>ATOM
     1 C         0.813131   -2.685178   -3.561624 C.3        1 UNL1     0.0009
     2 C         2.256553   -3.6912   -4.145994 C.2        1 UNL1     -0.0787
     3 C         3.533531   -3.780889   -4.822255 C.2        1 UNL1     -0.0649
     4 C         4.549802   -5.128726   -4.952209 C.2        1 UNL1     -0.0542
     5 C         5.872544   -5.564752   -5.211654 C.2        1 UNL1     0.0115
     6 C         7.269824   -5.109246   -5.715088 C.3        1 UNL1     -0.0348
     7 C         6.306102   -7.042744   -4.759375 C.2        1 UNL1     0.2441
     8 O         6.393078   -7.979319   -5.541544 O.2        1 UNL1     -0.2702
     9 N         6.830417   -7.130417   -3.458007 N.am        1 UNL1     -0.2772
     10 C         5.819379   -7.324173   -2.544998 C.2        1 UNL1     0.1049
     11 C         5.181208   -6.23954   -2.144334 C.2        1 UNL1     0.0801
     12 C         3.799083   -8.727478   -2.09061 C.ar        1 UNL1     0.0753
     13 C         3.094305   -7.501701   -1.868423 C.ar        1 UNL1     0.0305
     14 C         3.795895   -6.224607   -1.759545 C.2        1 UNL1     0.0924
     15 N         5.487786   -4.942666   -2.319418 N.pl3        1 UNL1     -0.3170
     16 C         4.562779   -4.163389   -1.540096 C.3        1 UNL1     0.1275
     17 N         3.321761   -5.018519   -1.460422 N.2        1 UNL1     -0.2557
     18 C         5.117719   -4.089126   -0.12086 C.3        1 UNL1     0.0016
     19 C         6.525976   -3.518972   -0.178536 C.3        1 UNL1     0.0026
     20 N         6.471183   -2.198076   -0.789485 N.3        1 UNL1     -0.3018
     21 C         5.894044   -2.158747   -2.134747 C.3        1 UNL1     0.0026
     22 C         4.478105   -2.731682   -2.052535 C.3        1 UNL1     0.0016
     23 C         7.700081   -1.448048   -0.622413 C.3        1 UNL1     0.0012
     24 C         7.612597   -0.539251   0.613787 C.3        1 UNL1     -0.0339
     25 C         7.694397   0.946462   0.226457 C.3        1 UNL1     -0.0615
     26 C         6.346796   -0.844188   1.395798 C.3        1 UNL1     -0.0615
     27 C         3.138193   -9.953457   -2.072762 C.ar        1 UNL1     0.1347
     28 C         1.787028   -10.082551   -1.804921 C.ar        1 UNL1     0.0342
     29 C         1.104482   -8.858901   -1.637665 C.ar        1 UNL1     0.1435
     30 C         1.746725   -7.621107   -1.688748 C.ar        1 UNL1     0.0774
     31 O         -0.192644   -8.821068   -1.262111 O.3        1 UNL1     -0.4436
     32 C         -0.382858   -7.494184   -0.748232 C.3        1 UNL1     0.3143
     33 C         0.704918   -6.659689   -1.393657 C.2        1 UNL1     0.2504
     34 C         1.063351   -11.369457   -1.521612 C.3        1 UNL1     -0.0327
     35 O         -1.633638   -7.015335   -1.257649 O.2        1 UNL1     -0.4528
     36 C         -2.977224   -4.621719   1.364082 C.3        1 UNL1     0.0854
     37 C         -2.309593   -3.325389   1.965181 C.3        1 UNL1     0.0236
     38 C         -3.194581   -1.993141   1.848329 C.3        1 UNL1     0.1131
     39 C         -3.814202   -1.582113   0.452121 C.3        1 UNL1     0.0200
     40 C         -2.901518   -1.68469   -0.940331 C.3        1 UNL1     0.0661
     41 C         -1.338309   -1.060847   -1.152012 C.3        1 UNL1     0.0091
     42 C         0.057579   -1.669796   -2.174793 C.3        1 UNL1     0.0661
     43 C         5.272628   -8.657406   -2.251902 C.2        1 UNL1     0.2131
     44 O         6.016721   -9.60129   -2.056597 O.2        1 UNL1     -0.2851
     45 O         3.889428   -11.095283   -2.343533 O.3        1 UNL1     -0.5056
     46 O         0.702931   -5.472489   -1.631156 O.2        1 UNL1     -0.2836
     47 C         -0.112552   -2.326326   -4.755072 C.3        1 UNL1     -0.0566
     48 O         0.355998   -0.341218   -2.762113 O.3        1 UNL1     -0.3909
     49 C         -0.768966   -0.70102   0.202192 C.3        1 UNL1     -0.0577
     50 O         -2.984659   -2.980009   -1.49976 O.3        1 UNL1     -0.3910
     51 O         -4.176563   -4.422619   0.650377 O.3        1 UNL1     -0.3753
     52 C         -0.760733   -3.315861   1.750953 C.3        1 UNL1     -0.0564
     53 O         -2.710014   -0.87186   2.720251 O.3        1 UNL1     -0.4608
     54 C         -3.47653   0.167927   3.177664 C.2        1 UNL1     0.3042
     55 O         -3.225693   0.925029   4.114529 O.2        1 UNL1     -0.2512
     56 C         -4.723681   0.395666   2.371771 C.3        1 UNL1     0.0332
     57 C         -5.311307   -2.143031   0.404979 C.3        1 UNL1     -0.0567
     58 C         -0.115674   -7.571784   0.772991 C.3        1 UNL1     0.0210
     59 C         -4.208281   -5.01738   -0.646203 C.3        1 UNL1     0.0372
     60 C         -2.090062   -5.439752   0.492917 C.2        1 UNL1     -0.0208
     61 C         -2.326481   -6.009828   -0.689395 C.2        1 UNL1     0.0882
     62 H         0.394507   -3.588328   -3.101421 H        1 UNL1     0.0365
     63 H         1.935502   -4.694384   -3.857864 H        1 UNL1     0.0576
     64 H         4.050546   -2.891501   -5.189396 H        1 UNL1     0.0615
     65 H         3.916884   -5.963489   -4.639051 H        1 UNL1     0.0622
     66 H         -3.200991   -5.248044   2.23912 H        1 UNL1     0.0645
     67 H         -2.31862   -3.499974   3.055134 H        1 UNL1     0.0362
     68 H         -4.05201   -2.286503   2.473051 H        1 UNL1     0.0741
     69 H         -4.080382   -0.534016   0.48449 H        1 UNL1     0.0359
     70 H         -3.510589   -1.0526   -1.614538 H        1 UNL1     0.0600
     71 H         -1.58307   -0.059556   -1.557555 H        1 UNL1     0.0348
     72 H         -0.847172   -2.141748   -2.584675 H        1 UNL1     0.0602
     73 H         -1.186769   -5.647169   1.010884 H        1 UNL1     0.0628
     74 H         -3.199605   -5.804189   -1.309561 H        1 UNL1     0.1022
     75 H         8.065257   -5.414399   -4.993144 H        1 UNL1     0.0279
     76 H         7.6173   -5.550225   -6.646682 H        1 UNL1     0.0279
     77 H         7.385789   -4.015513   -5.715898 H        1 UNL1     0.0279
     78 H         7.297103   -6.258303   -3.217801 H        1 UNL1     0.1553
     79 H         6.404465   -4.614992   -2.562858 H        1 UNL1     0.1484
     80 H         4.456415   -3.462059   0.489246 H        1 UNL1     0.0317
     81 H         5.129937   -5.079467   0.346822 H        1 UNL1     0.0317
     82 H         7.211113   -4.181155   -0.728095 H        1 UNL1     0.0428
     83 H         6.90336   -3.4764   0.843628 H        1 UNL1     0.0428
     84 H         5.791106   -1.146706   -2.538465 H        1 UNL1     0.0428
     85 H         6.529634   -2.674922   -2.867485 H        1 UNL1     0.0428
     86 H         4.04175   -2.565155   -3.019929 H        1 UNL1     0.0317
     87 H         3.862315   -2.11473   -1.38675 H        1 UNL1     0.0317
     88 H         8.519241   -2.163537   -0.472921 H        1 UNL1     0.0429
     89 H         7.939393   -0.868855   -1.523545 H        1 UNL1     0.0429
     90 H         8.444889   -0.770376   1.289127 H        1 UNL1     0.0308
     91 H         7.86243   1.068767   -0.847744 H        1 UNL1     0.0233
     92 H         6.777793   1.470093   0.507983 H        1 UNL1     0.0233
     93 H         8.513238   1.466887   0.73782 H        1 UNL1     0.0233
     94 H         5.540875   -1.132694   0.712358 H        1 UNL1     0.0233
     95 H         6.522644   -1.678301   2.08085 H        1 UNL1     0.0233
     96 H         6.015935   0.023383   1.97357 H        1 UNL1     0.0233
     97 H         1.545591   -12.220462   -1.993275 H        1 UNL1     0.0280
     98 H         1.031565   -11.598768   -0.448457 H        1 UNL1     0.0280
     99 H         0.03057   -11.303368   -1.901205 H        1 UNL1     0.0280
     100 H         3.381249   -11.8516   -2.578824 H        1 UNL1     0.2922
     101 H         0.247804   -2.815347   -5.659869 H        1 UNL1     0.0236
     102 H         -0.237962   -1.252854   -4.892597 H        1 UNL1     0.0236
     103 H         -1.13588   -2.713316   -4.616397 H        1 UNL1     0.0236
     104 H         0.195398   -0.40122   -3.724182 H        1 UNL1     0.2098
     105 H         -1.479215   -0.230303   0.87731 H        1 UNL1     0.0234
     106 H         -0.248776   -1.514243   0.708153 H        1 UNL1     0.0234
     107 H         0.0   0.0   0.0 H        1 UNL1     0.0234
     108 H         -2.145284   -3.147293   -1.970114 H        1 UNL1     0.2098
     109 H         -0.485448   -3.469889   0.698239 H        1 UNL1     0.0234
     110 H         -0.279948   -2.405981   2.12606 H        1 UNL1     0.0234
     111 H         -0.27013   -4.125184   2.307954 H        1 UNL1     0.0234
     112 H         -5.510972   0.804969   3.012076 H        1 UNL1     0.0342
     113 H         -4.54415   1.040364   1.512716 H        1 UNL1     0.0342
     114 H         -5.069222   -0.575854   1.992411 H        1 UNL1     0.0342
     115 H         -5.625653   -2.550169   1.375862 H        1 UNL1     0.0234
     116 H         -6.053944   -1.401484   0.103905 H        1 UNL1     0.0234
     117 H         -5.429648   -3.026926   -0.245149 H        1 UNL1     0.0234
     118 H         -1.020133   -7.856027   1.338824 H        1 UNL1     0.0309
     119 H         0.698516   -8.256107   1.031835 H        1 UNL1     0.0309
     120 H         0.156045   -6.601148   1.202106 H        1 UNL1     0.0309
     121 H         -4.031718   -4.227431   -1.375697 H        1 UNL1     0.0524
     122 H         -3.417456   -5.774402   -0.778688 H        1 UNL1     0.0524
     123 H         -5.174216   -5.481889   -0.823104 H        1 UNL1     0.0524
@<TRIPOS>BOND
     1     1     2    1
     2     1    42    1
     3     2     3    2
     4     3     4    1
     5     4     5    2
     6     5     7    1
     7     6    75    1
     8     6    76    1
     9     6    77    1
    10     7     9   am
    11     9    10    1
    12    10    11    2
    13    10    43    1
    14    11    14    1
    15    11    15    1
    16    12    13   ar
    17    12    27   ar
    18    12    43    1
    19    13    14    1
    20    13    30   ar
    21    14    17    2
    22    15    16    1
    23    16    17    1
    24    16    18    1
    25    16    22    1
    26    18    19    1
    27    19    20    1
    28    20    21    1
    29    21    22    1
    30    23    24    1
    31    23    88    1
    32    23    89    1
    33    24    25    1
    34    24    26    1
    35    24    90    1
    36    25    91    1
    37    25    92    1
    38    25    93    1
    39    26    94    1
    40    26    95    1
    41    26    96    1
    42    27    28   ar
    43    28    29   ar
    44    29    30   ar
    45    29    31    1
    46    30    33    1
    47    31    32    1
    48    32    33    1
    49    32    35    1
    50    34    97    1
    51    34    98    1
    52    34    99    1
    53    35    61    1
    54    36    37    1
    55    36    60    1
    56    37    38    1
    57    38    39    1
    58    39    40    1
    59    40    41    1
    60    41    42    1
    61    45   100    1
    62    47   101    1
    63    47   102    1
    64    47   103    1
    65    48   104    1
    66    49   105    1
    67    49   106    1
    68    49   107    1
    69    50   108    1
    70    51    59    1
    71    52   109    1
    72    52   110    1
    73    52   111    1
    74    53    54    1
    75    54    55    2
    76    54    56    1
    77    56   112    1
    78    56   113    1
    79    56   114    1
    80    57   115    1
    81    57   116    1
    82    57   117    1
    83    58   118    1
    84    58   119    1
    85    58   120    1
    86    59   121    1
    87    59   122    1
    88    59   123    1
    89    60    61    2
    90     1    47    1
    91     1    62    1
    92     2    63    1
    93     3    64    1
    94     4    65    1
    95     5     6    1
    96     7     8    2
    97     9    78    1
    98    15    79    1
    99    18    80    1
   100    18    81    1
   101    19    82    1
   102    19    83    1
   103    20    23    1
   104    21    84    1
   105    21    85    1
   106    22    86    1
   107    22    87    1
   108    27    45    1
   109    28    34    1
   110    32    58    1
   111    33    46    2
   112    36    51    1
   113    36    66    1
   114    37    52    1
   115    37    67    1
   116    38    53    1
   117    38    68    1
   118    42    48    1
   119    42    72    1
   120    43    44    2
   121    60    73    1
   122    61    74    1
   123    39    69    1
   124    39    57    1
   125    40    70    1
   126    40    50    1
   127    41    71    1
   128    41    49    1
