@<TRIPOS>MOLECULE
*****
 123 128 0 0 0
SMALL
GASTEIGER

@<TRIPOS>ATOM
     1 C         4.982623   2.214412   0.52967 C.3        1 UNL1     0.0009
     2 C         6.377862   3.077821   -0.333388 C.2        1 UNL1     -0.0787
     3 C         7.691325   3.044509   -0.94146 C.2        1 UNL1     -0.0649
     4 C         8.487798   4.289817   -1.766808 C.2        1 UNL1     -0.0542
     5 C         9.51792   4.598069   -2.689253 C.2        1 UNL1     0.0115
     6 C         10.734072   4.01109   -3.457207 C.3        1 UNL1     -0.0348
     7 C         9.50755   6.029622   -3.415572 C.2        1 UNL1     0.2441
     8 O         10.237816   6.951681   -3.079352 O.2        1 UNL1     -0.2702
     9 N         8.793916   6.070774   -4.62602 N.am        1 UNL1     -0.2772
     10 C         7.469403   6.361733   -4.392928 C.2        1 UNL1     0.1049
     11 C         6.701315   5.343404   -4.050483 C.2        1 UNL1     0.0801
     12 C         5.972817   7.951062   -3.171619 C.ar        1 UNL1     0.0753
     13 C         5.298123   6.798047   -2.657858 C.ar        1 UNL1     0.0305
     14 C         5.558786   5.460608   -3.185459 C.2        1 UNL1     0.0924
     15 N         6.948403   4.022882   -4.09168 N.pl3        1 UNL1     -0.3170
     16 C         5.724273   3.336681   -3.774051 C.3        1 UNL1     0.1275
     17 N         4.963185   4.30558   -2.902442 N.2        1 UNL1     -0.2557
     18 C         4.925735   3.214041   -5.068268 C.3        1 UNL1     0.0016
     19 C         5.787139   2.513078   -6.106643 C.3        1 UNL1     0.0026
     20 N         6.161514   1.201664   -5.595698 N.3        1 UNL1     -0.3018
     21 C         6.881072   1.213519   -4.32037 C.3        1 UNL1     0.0026
     22 C         5.995683   1.918043   -3.290988 C.3        1 UNL1     0.0016
     23 C         6.725279   0.3392   -6.614997 C.3        1 UNL1     0.0012
     24 C         5.640714   -0.094679   -7.613608 C.3        1 UNL1     -0.0339
     25 C         4.550854   0.979654   -7.76216 C.3        1 UNL1     -0.0615
     26 C         6.272216   -0.439036   -8.951294 C.3        1 UNL1     -0.0615
     27 C         5.632868   9.234104   -2.749296 C.ar        1 UNL1     0.1347
     28 C         4.612517   9.491146   -1.85104 C.ar        1 UNL1     0.0342
     29 C         3.995049   8.337999   -1.321748 C.ar        1 UNL1     0.1435
     30 C         4.349484   7.04487   -1.708291 C.ar        1 UNL1     0.0774
     31 O         2.911697   8.424038   -0.519282 O.3        1 UNL1     -0.4436
     32 C         2.309353   7.122472   -0.582392 C.3        1 UNL1     0.3143
     33 C         3.429231   6.187103   -0.991259 C.2        1 UNL1     0.2504
     34 C         4.027172   10.841488   -1.544369 C.3        1 UNL1     -0.0327
     35 O         1.931638   6.762731   0.752213 O.2        1 UNL1     -0.4528
     36 C         -1.106367   4.513943   0.403551 C.3        1 UNL1     0.0854
     37 C         -1.25884   3.161879   -0.394068 C.3        1 UNL1     0.0236
     38 C         -1.778893   1.919014   0.475745 C.3        1 UNL1     0.1131
     39 C         -1.066531   1.564721   1.842964 C.3        1 UNL1     0.0200
     40 C         0.597619   1.57679   1.956533 C.3        1 UNL1     0.0661
     41 C         1.671788   0.807311   0.892733 C.3        1 UNL1     0.0091
     42 C         3.363461   1.278756   0.362275 C.3        1 UNL1     0.0661
     43 C         6.985744   7.741485   -4.235722 C.2        1 UNL1     0.2131
     44 O         7.335326   8.611266   -5.012903 O.2        1 UNL1     -0.2851
     45 O         6.369237   10.299021   -3.264224 O.3        1 UNL1     -0.5056
     46 O         3.546364   5.004785   -0.758324 O.2        1 UNL1     -0.2836
     47 C         5.352204   1.941554   2.012553 C.3        1 UNL1     -0.0566
     48 O         3.931633   -0.073654   0.579726 O.3        1 UNL1     -0.3909
     49 C         0.916688   0.398851   -0.352449 C.3        1 UNL1     -0.0577
     50 O         1.069434   2.872669   2.266066 O.3        1 UNL1     -0.3910
     51 O         -1.273937   4.427286   1.800635 O.3        1 UNL1     -0.3753
     52 C         -0.15478   3.005309   -1.490193 C.3        1 UNL1     -0.0564
     53 O         -2.246789   0.759251   -0.353924 O.3        1 UNL1     -0.4608
     54 C         -2.063176   -0.56355   -0.046657 C.2        1 UNL1     0.3042
     55 O         -1.237596   -1.33558   -0.532688 O.2        1 UNL1     -0.2512
     56 C         -2.961523   -1.05606   1.052033 C.3        1 UNL1     0.0332
     57 C         -1.898704   2.264615   3.015914 C.3        1 UNL1     -0.0567
     58 C         1.265156   7.178506   -1.721708 C.3        1 UNL1     0.0210
     59 C         -2.486259   4.994312   2.295227 C.3        1 UNL1     0.0372
     60 C         0.17029   5.242061   0.168706 C.2        1 UNL1     -0.0208
     61 C         1.001978   5.828791   1.030556 C.2        1 UNL1     0.0882
     62 H         4.417766   3.154336   0.515788 H        1 UNL1     0.0365
     63 H         6.01467   4.107641   -0.32762 H        1 UNL1     0.0576
     64 H         8.242326   2.109226   -1.062919 H        1 UNL1     0.0615
     65 H         7.906577   5.18154   -1.516815 H        1 UNL1     0.0622
     66 H         -1.900105   5.160957   0.004302 H        1 UNL1     0.0645
     67 H         -2.120847   3.33944   -1.060383 H        1 UNL1     0.0362
     68 H         -2.775531   2.293833   0.754574 H        1 UNL1     0.0741
     69 H         -1.315134   0.546593   2.111328 H        1 UNL1     0.0359
     70 H         0.728928   1.003353   2.894077 H        1 UNL1     0.0600
     71 H         1.7872   -0.167415   1.406101 H        1 UNL1     0.0348
     72 H         3.171812   1.833082   1.292494 H        1 UNL1     0.0602
     73 H         0.315474   5.364481   -0.875892 H        1 UNL1     0.0628
     74 H         0.956384   5.705014   2.113071 H        1 UNL1     0.1022
     75 H         11.389385   3.427599   -2.766456 H        1 UNL1     0.0279
     76 H         10.511492   3.286257   -4.237043 H        1 UNL1     0.0279
     77 H         11.42852   4.787185   -3.810929 H        1 UNL1     0.0279
     78 H         8.832508   5.159068   -5.076998 H        1 UNL1     0.1553
     79 H         7.675471   3.609317   -4.645998 H        1 UNL1     0.1484
     80 H         4.004304   2.653971   -4.868134 H        1 UNL1     0.0317
     81 H         4.619983   4.200029   -5.434322 H        1 UNL1     0.0317
     82 H         6.676873   3.106013   -6.364934 H        1 UNL1     0.0428
     83 H         5.199216   2.437723   -7.021912 H        1 UNL1     0.0428
     84 H         7.079937   0.214681   -3.919637 H        1 UNL1     0.0428
     85 H         7.877941   1.665301   -4.417647 H        1 UNL1     0.0428
     86 H         6.492044   1.790961   -2.346814 H        1 UNL1     0.0317
     87 H         5.058021   1.363885   -3.16139 H        1 UNL1     0.0317
     88 H         7.492375   0.90745   -7.15717 H        1 UNL1     0.0429
     89 H         7.224419   -0.531011   -6.169615 H        1 UNL1     0.0429
     90 H         5.172813   -1.019674   -7.256302 H        1 UNL1     0.0308
     91 H         4.98783   1.975187   -7.884912 H        1 UNL1     0.0233
     92 H         3.908092   0.762059   -8.618383 H        1 UNL1     0.0233
     93 H         3.890055   1.027844   -6.888171 H        1 UNL1     0.0233
     94 H         5.526302   -0.368756   -9.750361 H        1 UNL1     0.0233
     95 H         7.076259   0.266824   -9.177651 H        1 UNL1     0.0233
     96 H         6.682486   -1.452764   -8.949726 H        1 UNL1     0.0233
     97 H         2.961407   10.879627   -1.749117 H        1 UNL1     0.0280
     98 H         4.139687   11.110623   -0.485991 H        1 UNL1     0.0280
     99 H         4.525055   11.608087   -2.160432 H        1 UNL1     0.0280
     100 H         7.302622   10.188089   -3.21829 H        1 UNL1     0.2922
     101 H         4.826763   2.645197   2.657886 H        1 UNL1     0.0236
     102 H         6.426474   1.94392   2.193991 H        1 UNL1     0.0236
     103 H         5.01279   0.947248   2.347737 H        1 UNL1     0.0236
     104 H         3.191498   -0.672659   0.799645 H        1 UNL1     0.2098
     105 H         0.685092   1.219542   -1.02672 H        1 UNL1     0.0234
     106 H         1.361977   -0.429052   -0.90401 H        1 UNL1     0.0234
     107 H         0.0   -0.0   0.0 H        1 UNL1     0.0234
     108 H         1.404872   2.847947   3.18293 H        1 UNL1     0.2098
     109 H         -0.195096   3.808706   -2.238951 H        1 UNL1     0.0234
     110 H         0.857093   2.941096   -1.075786 H        1 UNL1     0.0234
     111 H         -0.272219   2.069139   -2.052101 H        1 UNL1     0.0234
     112 H         -2.750209   -2.109034   1.261647 H        1 UNL1     0.0342
     113 H         -2.87358   -0.452774   1.954339 H        1 UNL1     0.0342
     114 H         -4.000994   -0.984077   0.703489 H        1 UNL1     0.0342
     115 H         -1.469063   2.051936   4.004531 H        1 UNL1     0.0234
     116 H         -1.977172   3.349228   2.918416 H        1 UNL1     0.0234
     117 H         -2.918054   1.858731   3.134768 H        1 UNL1     0.0234
     118 H         0.230681   7.132601   -1.338612 H        1 UNL1     0.0309
     119 H         1.372054   8.061752   -2.3594 H        1 UNL1     0.0309
     120 H         1.325561   6.312739   -2.390218 H        1 UNL1     0.0309
     121 H         -2.314455   5.28842   3.330283 H        1 UNL1     0.0524
     122 H         -2.783047   5.898497   1.738088 H        1 UNL1     0.0524
     123 H         -3.291072   4.266696   2.240958 H        1 UNL1     0.0524
@<TRIPOS>BOND
     1     1     2    1
     2     1    42    1
     3     2     3    2
     4     3     4    1
     5     4     5    2
     6     5     7    1
     7     6    75    1
     8     6    76    1
     9     6    77    1
    10     7     9   am
    11     9    10    1
    12    10    11    2
    13    10    43    1
    14    11    14    1
    15    11    15    1
    16    12    13   ar
    17    12    27   ar
    18    12    43    1
    19    13    14    1
    20    13    30   ar
    21    14    17    2
    22    15    16    1
    23    16    17    1
    24    16    18    1
    25    16    22    1
    26    18    19    1
    27    19    20    1
    28    20    21    1
    29    21    22    1
    30    23    24    1
    31    23    88    1
    32    23    89    1
    33    24    25    1
    34    24    26    1
    35    24    90    1
    36    25    91    1
    37    25    92    1
    38    25    93    1
    39    26    94    1
    40    26    95    1
    41    26    96    1
    42    27    28   ar
    43    28    29   ar
    44    29    30   ar
    45    29    31    1
    46    30    33    1
    47    31    32    1
    48    32    33    1
    49    32    35    1
    50    34    97    1
    51    34    98    1
    52    34    99    1
    53    35    61    1
    54    36    37    1
    55    36    60    1
    56    37    38    1
    57    38    39    1
    58    39    40    1
    59    40    41    1
    60    41    42    1
    61    45   100    1
    62    47   101    1
    63    47   102    1
    64    47   103    1
    65    48   104    1
    66    49   105    1
    67    49   106    1
    68    49   107    1
    69    50   108    1
    70    51    59    1
    71    52   109    1
    72    52   110    1
    73    52   111    1
    74    53    54    1
    75    54    55    2
    76    54    56    1
    77    56   112    1
    78    56   113    1
    79    56   114    1
    80    57   115    1
    81    57   116    1
    82    57   117    1
    83    58   118    1
    84    58   119    1
    85    58   120    1
    86    59   121    1
    87    59   122    1
    88    59   123    1
    89    60    61    2
    90     1    47    1
    91     1    62    1
    92     2    63    1
    93     3    64    1
    94     4    65    1
    95     5     6    1
    96     7     8    2
    97     9    78    1
    98    15    79    1
    99    18    80    1
   100    18    81    1
   101    19    82    1
   102    19    83    1
   103    20    23    1
   104    21    84    1
   105    21    85    1
   106    22    86    1
   107    22    87    1
   108    27    45    1
   109    28    34    1
   110    32    58    1
   111    33    46    2
   112    36    51    1
   113    36    66    1
   114    37    52    1
   115    37    67    1
   116    38    53    1
   117    38    68    1
   118    42    48    1
   119    42    72    1
   120    43    44    2
   121    60    73    1
   122    61    74    1
   123    39    69    1
   124    39    57    1
   125    40    70    1
   126    40    50    1
   127    41    71    1
   128    41    49    1
