@<TRIPOS>MOLECULE
*****
 123 128 0 0 0
SMALL
GASTEIGER

@<TRIPOS>ATOM
     1 C         2.656879   -3.604296   -2.785899 C.3        1 UNL1     0.0009
     2 C         2.402636   -4.825076   -4.157793 C.2        1 UNL1     -0.0787
     3 C         2.346073   -6.193554   -4.626957 C.2        1 UNL1     -0.0649
     4 C         1.899099   -6.749567   -6.162347 C.2        1 UNL1     -0.0542
     5 C         1.445783   -7.866976   -6.905974 C.2        1 UNL1     0.0115
     6 C         1.200354   -9.399821   -6.847036 C.3        1 UNL1     -0.0348
     7 C         0.781316   -7.623454   -8.346866 C.2        1 UNL1     0.2441
     8 O         1.378887   -7.81735   -9.396552 O.2        1 UNL1     -0.2702
     9 N         -0.610145   -7.424408   -8.327732 N.am        1 UNL1     -0.2772
     10 C         -0.902181   -6.091715   -8.148935 C.2        1 UNL1     0.1049
     11 C         -0.888482   -5.654979   -6.902622 C.2        1 UNL1     0.0801
     12 C         -0.339077   -3.8066   -8.996575 C.ar        1 UNL1     0.0753
     13 C         -0.132267   -3.435991   -7.629649 C.ar        1 UNL1     0.0305
     14 C         -0.528419   -4.313591   -6.530589 C.2        1 UNL1     0.0924
     15 N         -0.840731   -6.340563   -5.747537 N.pl3        1 UNL1     -0.3170
     16 C         -1.022956   -5.402448   -4.671903 C.3        1 UNL1     0.1275
     17 N         -0.504217   -4.094993   -5.21889 N.2        1 UNL1     -0.2557
     18 C         -2.525532   -5.216442   -4.48384 C.3        1 UNL1     0.0016
     19 C         -3.157776   -6.578041   -4.243202 C.3        1 UNL1     0.0026
     20 N         -2.551336   -7.172885   -3.060231 N.3        1 UNL1     -0.3018
     21 C         -1.097334   -7.335479   -3.121961 C.3        1 UNL1     0.0026
     22 C         -0.482589   -5.955076   -3.359595 C.3        1 UNL1     0.0016
     23 C         -3.28153   -8.325389   -2.571157 C.3        1 UNL1     0.0012
     24 C         -3.559607   -9.312328   -3.715875 C.3        1 UNL1     -0.0339
     25 C         -2.930528   -10.687508   -3.438036 C.3        1 UNL1     -0.0615
     26 C         -5.054998   -9.42043   -3.958564 C.3        1 UNL1     -0.0615
     27 C         -0.07097   -2.916802   -10.03412 C.ar        1 UNL1     0.1347
     28 C         0.367719   -1.621096   -9.827367 C.ar        1 UNL1     0.0342
     29 C         0.610866   -1.294587   -8.476281 C.ar        1 UNL1     0.1435
     30 C         0.381288   -2.187604   -7.428886 C.ar        1 UNL1     0.0774
     31 O         0.935714   -0.037717   -8.102439 O.3        1 UNL1     -0.4436
     32 C         0.636789   0.011964   -6.699211 C.3        1 UNL1     0.3143
     33 C         0.683389   -1.429104   -6.232986 C.2        1 UNL1     0.2504
     34 C         0.435188   -0.536706   -10.866428 C.3        1 UNL1     -0.0327
     35 O         1.721045   0.693624   -6.056577 O.2        1 UNL1     -0.4528
     36 C         0.21547   2.425466   -3.032993 C.3        1 UNL1     0.0854
     37 C         -0.58888   1.804239   -1.826917 C.3        1 UNL1     0.0236
     38 C         0.005433   2.137348   -0.375168 C.3        1 UNL1     0.1131
     39 C         1.538937   1.887349   -0.078289 C.3        1 UNL1     0.0200
     40 C         2.283675   0.489208   -0.600787 C.3        1 UNL1     0.0661
     41 C         1.709285   -1.089691   -0.366766 C.3        1 UNL1     0.0091
     42 C         1.873303   -2.583784   -1.418521 C.3        1 UNL1     0.0661
     43 C         -0.933384   -5.138922   -9.268562 C.2        1 UNL1     0.2131
     44 O         -1.510332   -5.419988   -10.303391 O.2        1 UNL1     -0.2851
     45 O         -0.25576   -3.371769   -11.338074 O.3        1 UNL1     -0.5056
     46 O         0.935195   -1.85593   -5.128329 O.2        1 UNL1     -0.2836
     47 C         4.165932   -3.487435   -2.440813 C.3        1 UNL1     -0.0566
     48 O         2.283039   -3.466078   -0.29924 O.3        1 UNL1     -0.3909
     49 C         0.266679   -1.022589   0.082543 C.3        1 UNL1     -0.0577
     50 O         2.759853   0.639098   -1.9231 O.3        1 UNL1     -0.3910
     51 O         1.440103   3.04172   -2.704455 O.3        1 UNL1     -0.3753
     52 C         -1.177339   0.399739   -2.181948 C.3        1 UNL1     -0.0564
     53 O         -0.948431   1.84463   0.745896 O.3        1 UNL1     -0.4608
     54 C         -0.649834   1.910935   2.081701 C.2        1 UNL1     0.3042
     55 O         -0.33597   2.90964   2.728166 O.2        1 UNL1     -0.2512
     56 C         -0.792147   0.596906   2.795695 C.3        1 UNL1     0.0332
     57 C         2.306639   3.271481   -0.308477 C.3        1 UNL1     -0.0567
     58 C         -0.815999   0.528301   -6.579481 C.3        1 UNL1     0.0210
     59 C         1.853457   4.070366   -3.602726 C.3        1 UNL1     0.0372
     60 C         0.494601   1.485976   -4.153085 C.2        1 UNL1     -0.0208
     61 C         1.614041   1.276658   -4.847193 C.2        1 UNL1     0.0882
     62 H         2.433454   -2.794501   -3.4909 H        1 UNL1     0.0365
     63 H         2.275512   -4.152024   -5.00827 H        1 UNL1     0.0576
     64 H         2.439269   -7.038254   -3.940733 H        1 UNL1     0.0615
     65 H         1.912632   -5.847639   -6.780266 H        1 UNL1     0.0622
     66 H         -0.453733   3.19429   -3.444238 H        1 UNL1     0.0645
     67 H         -1.534139   2.3742   -1.81317 H        1 UNL1     0.0362
     68 H         -0.117738   3.231123   -0.372523 H        1 UNL1     0.0741
     69 H         1.68398   1.847132   0.993043 H        1 UNL1     0.0359
     70 H         3.195613   0.513233   0.025991 H        1 UNL1     0.0600
     71 H         2.220749   -1.342705   0.582626 H        1 UNL1     0.0348
     72 H         2.662184   -1.892425   -1.74868 H        1 UNL1     0.0602
     73 H         -0.413004   1.027877   -4.459103 H        1 UNL1     0.0628
     74 H         2.594928   1.661525   -4.566168 H        1 UNL1     0.1022
     75 H         1.142016   -9.827378   -7.877 H        1 UNL1     0.0279
     76 H         1.983638   -9.999274   -6.388569 H        1 UNL1     0.0279
     77 H         0.207637   -9.656568   -6.449172 H        1 UNL1     0.0279
     78 H         -1.017974   -7.934778   -7.547171 H        1 UNL1     0.1553
     79 H         -1.075779   -7.312756   -5.666753 H        1 UNL1     0.1484
     80 H         -2.698959   -4.539325   -3.638735 H        1 UNL1     0.0317
     81 H         -2.974111   -4.741667   -5.363054 H        1 UNL1     0.0317
     82 H         -3.049992   -7.237162   -5.117189 H        1 UNL1     0.0428
     83 H         -4.229236   -6.422448   -4.113532 H        1 UNL1     0.0428
     84 H         -0.657928   -7.70958   -2.192024 H        1 UNL1     0.0428
     85 H         -0.800712   -8.078573   -3.875051 H        1 UNL1     0.0428
     86 H         0.578937   -6.090898   -3.266307 H        1 UNL1     0.0317
     87 H         -0.727328   -5.28713   -2.524702 H        1 UNL1     0.0317
     88 H         -2.660659   -8.828926   -1.818651 H        1 UNL1     0.0429
     89 H         -4.211984   -8.025543   -2.072035 H        1 UNL1     0.0429
     90 H         -3.133436   -8.91459   -4.644529 H        1 UNL1     0.0308
     91 H         -2.885367   -10.894673   -2.364655 H        1 UNL1     0.0233
     92 H         -3.498431   -11.479098   -3.932486 H        1 UNL1     0.0233
     93 H         -1.905168   -10.762547   -3.819928 H        1 UNL1     0.0233
     94 H         -5.355917   -8.74678   -4.768181 H        1 UNL1     0.0233
     95 H         -5.312473   -10.440871   -4.255834 H        1 UNL1     0.0233
     96 H         -5.624621   -9.159525   -3.062223 H        1 UNL1     0.0233
     97 H         1.308542   -0.637027   -11.503939 H        1 UNL1     0.0280
     98 H         -0.43187   -0.554071   -11.539602 H        1 UNL1     0.0280
     99 H         0.480214   0.446926   -10.370912 H        1 UNL1     0.0280
     100 H         -1.152111   -3.538572   -11.571214 H        1 UNL1     0.2922
     101 H         4.440637   -4.262496   -1.72564 H        1 UNL1     0.0236
     102 H         4.451292   -2.493837   -2.096842 H        1 UNL1     0.0236
     103 H         4.807161   -3.676059   -3.31799 H        1 UNL1     0.0236
     104 H         2.868606   -2.947146   0.286244 H        1 UNL1     0.2098
     105 H         -0.422249   -1.596739   -0.531901 H        1 UNL1     0.0234
     106 H         0.107485   -1.245308   1.137522 H        1 UNL1     0.0234
     107 H         0.0   0.0   0.0 H        1 UNL1     0.0234
     108 H         3.734503   0.680861   -1.877468 H        1 UNL1     0.2098
     109 H         -1.072447   0.16264   -3.249887 H        1 UNL1     0.0234
     110 H         -0.748274   -0.410636   -1.582832 H        1 UNL1     0.0234
     111 H         -2.253521   0.346472   -1.969955 H        1 UNL1     0.0234
     112 H         0.030386   0.468195   3.505778 H        1 UNL1     0.0342
     113 H         -1.7562   0.503563   3.293422 H        1 UNL1     0.0342
     114 H         -0.722896   -0.20765   2.050672 H        1 UNL1     0.0342
     115 H         3.161123   3.382835   0.373173 H        1 UNL1     0.0234
     116 H         2.678082   3.409259   -1.325874 H        1 UNL1     0.0234
     117 H         1.705066   4.157694   -0.042623 H        1 UNL1     0.0234
     118 H         -0.855923   1.581263   -6.24981 H        1 UNL1     0.0309
     119 H         -1.387738   0.421414   -7.506784 H        1 UNL1     0.0309
     120 H         -1.387534   0.000357   -5.808294 H        1 UNL1     0.0309
     121 H         1.152272   4.89823   -3.501058 H        1 UNL1     0.0524
     122 H         2.85872   4.455499   -3.363653 H        1 UNL1     0.0524
     123 H         1.851275   3.700595   -4.624176 H        1 UNL1     0.0524
@<TRIPOS>BOND
     1     1     2    1
     2     1    42    1
     3     2     3    2
     4     3     4    1
     5     4     5    2
     6     5     7    1
     7     6    75    1
     8     6    76    1
     9     6    77    1
    10     7     9   am
    11     9    10    1
    12    10    11    2
    13    10    43    1
    14    11    14    1
    15    11    15    1
    16    12    13   ar
    17    12    27   ar
    18    12    43    1
    19    13    14    1
    20    13    30   ar
    21    14    17    2
    22    15    16    1
    23    16    17    1
    24    16    18    1
    25    16    22    1
    26    18    19    1
    27    19    20    1
    28    20    21    1
    29    21    22    1
    30    23    24    1
    31    23    88    1
    32    23    89    1
    33    24    25    1
    34    24    26    1
    35    24    90    1
    36    25    91    1
    37    25    92    1
    38    25    93    1
    39    26    94    1
    40    26    95    1
    41    26    96    1
    42    27    28   ar
    43    28    29   ar
    44    29    30   ar
    45    29    31    1
    46    30    33    1
    47    31    32    1
    48    32    33    1
    49    32    35    1
    50    34    97    1
    51    34    98    1
    52    34    99    1
    53    35    61    1
    54    36    37    1
    55    36    60    1
    56    37    38    1
    57    38    39    1
    58    39    40    1
    59    40    41    1
    60    41    42    1
    61    45   100    1
    62    47   101    1
    63    47   102    1
    64    47   103    1
    65    48   104    1
    66    49   105    1
    67    49   106    1
    68    49   107    1
    69    50   108    1
    70    51    59    1
    71    52   109    1
    72    52   110    1
    73    52   111    1
    74    53    54    1
    75    54    55    2
    76    54    56    1
    77    56   112    1
    78    56   113    1
    79    56   114    1
    80    57   115    1
    81    57   116    1
    82    57   117    1
    83    58   118    1
    84    58   119    1
    85    58   120    1
    86    59   121    1
    87    59   122    1
    88    59   123    1
    89    60    61    2
    90     1    47    1
    91     1    62    1
    92     2    63    1
    93     3    64    1
    94     4    65    1
    95     5     6    1
    96     7     8    2
    97     9    78    1
    98    15    79    1
    99    18    80    1
   100    18    81    1
   101    19    82    1
   102    19    83    1
   103    20    23    1
   104    21    84    1
   105    21    85    1
   106    22    86    1
   107    22    87    1
   108    27    45    1
   109    28    34    1
   110    32    58    1
   111    33    46    2
   112    36    51    1
   113    36    66    1
   114    37    52    1
   115    37    67    1
   116    38    53    1
   117    38    68    1
   118    42    48    1
   119    42    72    1
   120    43    44    2
   121    60    73    1
   122    61    74    1
   123    39    69    1
   124    39    57    1
   125    40    70    1
   126    40    50    1
   127    41    71    1
   128    41    49    1
