@<TRIPOS>MOLECULE
*****
 123 128 0 0 0
SMALL
GASTEIGER

@<TRIPOS>ATOM
     1 C         3.689759   -1.782044   -3.636173 C.3        1 UNL1     0.0009
     2 C         4.202463   -1.801614   -5.417686 C.2        1 UNL1     -0.0787
     3 C         4.284722   -2.480704   -6.693663 C.2        1 UNL1     -0.0649
     4 C         4.832618   -1.858868   -8.169972 C.2        1 UNL1     -0.0542
     5 C         4.8116   -2.020402   -9.577289 C.2        1 UNL1     0.0115
     6 C         4.39786   -2.981134   -10.725826 C.3        1 UNL1     -0.0348
     7 C         5.230737   -0.781282   -10.507823 C.2        1 UNL1     0.2441
     8 O         6.324031   -0.696212   -11.050038 O.2        1 UNL1     -0.2702
     9 N         4.17098   0.068535   -10.869595 N.am        1 UNL1     -0.2772
     10 C         3.99736   1.050142   -9.921109 C.2        1 UNL1     0.1049
     11 C         3.281823   0.716464   -8.86239 C.2        1 UNL1     0.0801
     12 C         5.241374   2.762947   -8.588418 C.ar        1 UNL1     0.0753
     13 C         4.591089   2.222618   -7.433523 C.ar        1 UNL1     0.0305
     14 C         3.49086   1.268316   -7.55123 C.2        1 UNL1     0.0924
     15 N         2.512112   -0.363833   -8.64552 N.pl3        1 UNL1     -0.3170
     16 C         1.813786   -0.163641   -7.403539 C.3        1 UNL1     0.1275
     17 N         2.715795   0.745616   -6.605193 N.2        1 UNL1     -0.2557
     18 C         0.561146   0.649691   -7.715125 C.3        1 UNL1     0.0016
     19 C         -0.243328   -0.083659   -8.776544 C.3        1 UNL1     0.0026
     20 N         -0.588877   -1.405258   -8.271569 N.3        1 UNL1     -0.3018
     21 C         0.550179   -2.24089   -7.886029 C.3        1 UNL1     0.0026
     22 C         1.341594   -1.486991   -6.815893 C.3        1 UNL1     0.0016
     23 C         -1.598614   -2.068616   -9.072212 C.3        1 UNL1     0.0012
     24 C         -2.962132   -1.381757   -8.896713 C.3        1 UNL1     -0.0339
     25 C         -3.658095   -1.159429   -10.249585 C.3        1 UNL1     -0.0615
     26 C         -3.831866   -2.185977   -7.94615 C.3        1 UNL1     -0.0615
     27 C         6.205954   3.761109   -8.472775 C.ar        1 UNL1     0.1347
     28 C         6.573366   4.32392   -7.263517 C.ar        1 UNL1     0.0342
     29 C         5.955586   3.742268   -6.136045 C.ar        1 UNL1     0.1435
     30 C         5.014138   2.716925   -6.233855 C.ar        1 UNL1     0.0774
     31 O         6.126005   4.253124   -4.897097 O.3        1 UNL1     -0.4436
     32 C         5.024015   3.735333   -4.136582 C.3        1 UNL1     0.3143
     33 C         4.591771   2.481171   -4.869013 C.2        1 UNL1     0.2504
     34 C         7.408133   5.561317   -7.084318 C.3        1 UNL1     -0.0327
     35 O         5.540992   3.319504   -2.866514 O.2        1 UNL1     -0.4528
     36 C         2.701728   3.772683   -0.38835 C.3        1 UNL1     0.0854
     37 C         1.251431   3.153277   -0.410648 C.3        1 UNL1     0.0236
     38 C         0.842079   2.343232   0.911473 C.3        1 UNL1     0.1131
     39 C         1.807372   1.225264   1.477712 C.3        1 UNL1     0.0200
     40 C         2.536788   0.136781   0.445436 C.3        1 UNL1     0.0661
     41 C         1.754414   -0.773292   -0.753425 C.3        1 UNL1     0.0091
     42 C         2.355672   -1.359956   -2.384289 C.3        1 UNL1     0.0661
     43 C         4.790373   2.288481   -9.920237 C.2        1 UNL1     0.2131
     44 O         4.958689   2.915328   -10.950514 O.2        1 UNL1     -0.2851
     45 O         6.823483   4.200029   -9.642153 O.3        1 UNL1     -0.5056
     46 O         4.042532   1.49907   -4.422172 O.2        1 UNL1     -0.2836
     47 C         4.650994   -2.658315   -2.788731 C.3        1 UNL1     -0.0566
     48 O         1.863184   -2.745863   -2.194987 O.3        1 UNL1     -0.3909
     49 C         0.370005   -0.204842   -0.971986 C.3        1 UNL1     -0.0577
     50 O         3.74919   0.659613   -0.058996 O.3        1 UNL1     -0.3910
     51 O         3.515329   3.397152   0.699978 O.3        1 UNL1     -0.3753
     52 C         0.848041   2.667794   -1.841219 C.3        1 UNL1     -0.0564
     53 O         -0.630007   2.071077   1.017397 O.3        1 UNL1     -0.4608
     54 C         -1.192929   0.924649   1.514136 C.2        1 UNL1     0.3042
     55 O         -2.378265   0.728989   1.779718 O.2        1 UNL1     -0.2512
     56 C         -0.214132   -0.202725   1.68056 C.3        1 UNL1     0.0332
     57 C         2.712444   1.898616   2.611562 C.3        1 UNL1     -0.0567
     58 C         3.892946   4.785351   -4.234939 C.3        1 UNL1     0.0210
     59 C         3.911994   2.026577   0.70694 C.3        1 UNL1     0.0372
     60 C         3.502364   3.543665   -1.621919 C.2        1 UNL1     -0.0208
     61 C         4.773468   3.168084   -1.770172 C.2        1 UNL1     0.0882
     62 H         4.057785   -0.751663   -3.561453 H        1 UNL1     0.0365
     63 H         4.718941   -0.842303   -5.491449 H        1 UNL1     0.0576
     64 H         3.823818   -3.458147   -6.852657 H        1 UNL1     0.0615
     65 H         5.340044   -0.931715   -7.88999 H        1 UNL1     0.0622
     66 H         2.537498   4.85804   -0.332893 H        1 UNL1     0.0645
     67 H         0.584292   4.03038   -0.346029 H        1 UNL1     0.0362
     68 H         0.879496   3.161029   1.647225 H        1 UNL1     0.0741
     69 H         1.24407   0.582298   2.140807 H        1 UNL1     0.0359
     70 H         2.850351   -0.635718   1.173436 H        1 UNL1     0.0600
     71 H         1.523662   -1.691866   -0.179027 H        1 UNL1     0.0348
     72 H         3.254739   -1.125548   -1.796031 H        1 UNL1     0.0602
     73 H         2.938329   3.852543   -2.466731 H        1 UNL1     0.0628
     74 H         5.400633   2.783211   -0.965327 H        1 UNL1     0.1022
     75 H         4.743484   -4.020997   -10.510736 H        1 UNL1     0.0279
     76 H         3.330314   -3.117055   -10.883749 H        1 UNL1     0.0279
     77 H         4.923547   -2.768526   -11.668244 H        1 UNL1     0.0279
     78 H         3.305963   -0.465629   -10.919516 H        1 UNL1     0.1553
     79 H         2.161382   -0.953849   -9.377505 H        1 UNL1     0.1484
     80 H         -0.018172   0.781289   -6.793258 H        1 UNL1     0.0317
     81 H         0.82362   1.653383   -8.06635 H        1 UNL1     0.0317
     82 H         0.30568   -0.154214   -9.727083 H        1 UNL1     0.0428
     83 H         -1.130978   0.514397   -8.985007 H        1 UNL1     0.0428
     84 H         0.26124   -3.195874   -7.436217 H        1 UNL1     0.0428
     85 H         1.158784   -2.528343   -8.754527 H        1 UNL1     0.0428
     86 H         2.084546   -2.17861   -6.464221 H        1 UNL1     0.0317
     87 H         0.712592   -1.319574   -5.933042 H        1 UNL1     0.0317
     88 H         -1.302378   -1.993086   -10.126648 H        1 UNL1     0.0429
     89 H         -1.659812   -3.137685   -8.831128 H        1 UNL1     0.0429
     90 H         -2.814315   -0.407542   -8.415808 H        1 UNL1     0.0308
     91 H         -3.380383   -1.933149   -10.971621 H        1 UNL1     0.0233
     92 H         -4.743953   -1.15439   -10.129179 H        1 UNL1     0.0233
     93 H         -3.395957   -0.194664   -10.700525 H        1 UNL1     0.0233
     94 H         -4.717155   -2.561661   -8.470517 H        1 UNL1     0.0233
     95 H         -3.274006   -3.046805   -7.567033 H        1 UNL1     0.0233
     96 H         -4.163594   -1.579351   -7.098842 H        1 UNL1     0.0233
     97 H         7.803268   5.926393   -8.027619 H        1 UNL1     0.0280
     98 H         6.830399   6.392219   -6.658781 H        1 UNL1     0.0280
     99 H         8.256842   5.340417   -6.416492 H        1 UNL1     0.0280
     100 H         7.146026   3.511547   -10.196754 H        1 UNL1     0.2922
     101 H         5.324898   -2.019133   -2.218683 H        1 UNL1     0.0236
     102 H         5.190675   -3.39741   -3.379889 H        1 UNL1     0.0236
     103 H         4.112221   -3.246564   -2.027233 H        1 UNL1     0.0236
     104 H         1.342741   -2.763577   -1.368068 H        1 UNL1     0.2098
     105 H         0.349722   0.723017   -1.538093 H        1 UNL1     0.0234
     106 H         -0.35339   -0.9114   -1.378683 H        1 UNL1     0.0234
     107 H         -0.0   0.0   0.0 H        1 UNL1     0.0234
     108 H         4.01373   0.100936   -0.815082 H        1 UNL1     0.2098
     109 H         0.841992   3.488058   -2.572547 H        1 UNL1     0.0234
     110 H         1.476875   1.851111   -2.211813 H        1 UNL1     0.0234
     111 H         -0.167227   2.249489   -1.855347 H        1 UNL1     0.0234
     112 H         -0.72982   -1.090465   2.059149 H        1 UNL1     0.0342
     113 H         0.316865   -0.42392   0.75592 H        1 UNL1     0.0342
     114 H         0.531831   0.09823   2.428977 H        1 UNL1     0.0342
     115 H         2.945534   1.192852   3.420731 H        1 UNL1     0.0234
     116 H         3.658585   2.300641   2.243808 H        1 UNL1     0.0234
     117 H         2.196059   2.698947   3.169019 H        1 UNL1     0.0234
     118 H         4.059259   5.497649   -5.061968 H        1 UNL1     0.0309
     119 H         2.899604   4.338075   -4.341795 H        1 UNL1     0.0309
     120 H         3.841182   5.431413   -3.351745 H        1 UNL1     0.0309
     121 H         4.612279   1.890208   1.530567 H        1 UNL1     0.0524
     122 H         3.061555   1.345775   0.878107 H        1 UNL1     0.0524
     123 H         4.386621   1.767878   -0.235344 H        1 UNL1     0.0524
@<TRIPOS>BOND
     1     1     2    1
     2     1    42    1
     3     2     3    2
     4     3     4    1
     5     4     5    2
     6     5     7    1
     7     6    75    1
     8     6    76    1
     9     6    77    1
    10     7     9   am
    11     9    10    1
    12    10    11    2
    13    10    43    1
    14    11    14    1
    15    11    15    1
    16    12    13   ar
    17    12    27   ar
    18    12    43    1
    19    13    14    1
    20    13    30   ar
    21    14    17    2
    22    15    16    1
    23    16    17    1
    24    16    18    1
    25    16    22    1
    26    18    19    1
    27    19    20    1
    28    20    21    1
    29    21    22    1
    30    23    24    1
    31    23    88    1
    32    23    89    1
    33    24    25    1
    34    24    26    1
    35    24    90    1
    36    25    91    1
    37    25    92    1
    38    25    93    1
    39    26    94    1
    40    26    95    1
    41    26    96    1
    42    27    28   ar
    43    28    29   ar
    44    29    30   ar
    45    29    31    1
    46    30    33    1
    47    31    32    1
    48    32    33    1
    49    32    35    1
    50    34    97    1
    51    34    98    1
    52    34    99    1
    53    35    61    1
    54    36    37    1
    55    36    60    1
    56    37    38    1
    57    38    39    1
    58    39    40    1
    59    40    41    1
    60    41    42    1
    61    45   100    1
    62    47   101    1
    63    47   102    1
    64    47   103    1
    65    48   104    1
    66    49   105    1
    67    49   106    1
    68    49   107    1
    69    50   108    1
    70    51    59    1
    71    52   109    1
    72    52   110    1
    73    52   111    1
    74    53    54    1
    75    54    55    2
    76    54    56    1
    77    56   112    1
    78    56   113    1
    79    56   114    1
    80    57   115    1
    81    57   116    1
    82    57   117    1
    83    58   118    1
    84    58   119    1
    85    58   120    1
    86    59   121    1
    87    59   122    1
    88    59   123    1
    89    60    61    2
    90     1    47    1
    91     1    62    1
    92     2    63    1
    93     3    64    1
    94     4    65    1
    95     5     6    1
    96     7     8    2
    97     9    78    1
    98    15    79    1
    99    18    80    1
   100    18    81    1
   101    19    82    1
   102    19    83    1
   103    20    23    1
   104    21    84    1
   105    21    85    1
   106    22    86    1
   107    22    87    1
   108    27    45    1
   109    28    34    1
   110    32    58    1
   111    33    46    2
   112    36    51    1
   113    36    66    1
   114    37    52    1
   115    37    67    1
   116    38    53    1
   117    38    68    1
   118    42    48    1
   119    42    72    1
   120    43    44    2
   121    60    73    1
   122    61    74    1
   123    39    69    1
   124    39    57    1
   125    40    70    1
   126    40    50    1
   127    41    71    1
   128    41    49    1
