@<TRIPOS>MOLECULE
*****
 123 128 0 0 0
SMALL
GASTEIGER

@<TRIPOS>ATOM
     1 C         5.165031   1.75718   0.483783 C.3        1 UNL1     0.0009
     2 C         6.598777   2.566681   -0.368344 C.2        1 UNL1     -0.0787
     3 C         7.879609   2.471421   -1.036506 C.2        1 UNL1     -0.0649
     4 C         8.75355   3.708869   -1.792356 C.2        1 UNL1     -0.0542
     5 C         9.77136   4.004281   -2.7325 C.2        1 UNL1     0.0115
     6 C         10.899058   3.381715   -3.60085 C.3        1 UNL1     -0.0348
     7 C         9.863037   5.48835   -3.337582 C.2        1 UNL1     0.2441
     8 O         10.686188   6.311013   -2.960523 O.2        1 UNL1     -0.2702
     9 N         9.110331   5.695278   -4.506669 N.am        1 UNL1     -0.2772
     10 C         7.827524   6.079407   -4.190167 C.2        1 UNL1     0.1049
     11 C         6.983947   5.106223   -3.897742 C.2        1 UNL1     0.0801
     12 C         6.528933   7.682301   -2.775343 C.ar        1 UNL1     0.0753
     13 C         5.772636   6.552597   -2.327689 C.ar        1 UNL1     0.0305
     14 C         5.890644   5.247793   -2.974691 C.2        1 UNL1     0.0924
     15 N         7.108569   3.77763   -4.058483 N.pl3        1 UNL1     -0.3170
     16 C         5.840318   3.175932   -3.742643 C.3        1 UNL1     0.1275
     17 N         5.204056   4.129016   -2.76054 N.2        1 UNL1     -0.2557
     18 C         4.985071   3.234886   -5.004697 C.3        1 UNL1     0.0016
     19 C         5.739075   2.553308   -6.135413 C.3        1 UNL1     0.0026
     20 N         6.012294   1.175262   -5.751528 N.3        1 UNL1     -0.3018
     21 C         6.778181   1.014857   -4.513765 C.3        1 UNL1     0.0026
     22 C         6.000287   1.702829   -3.390613 C.3        1 UNL1     0.0016
     23 C         6.456193   0.357683   -6.862906 C.3        1 UNL1     0.0012
     24 C         5.299394   0.107266   -7.843143 C.3        1 UNL1     -0.0339
     25 C         5.321099   1.111735   -9.007028 C.3        1 UNL1     -0.0615
     26 C         5.340358   -1.326837   -8.341591 C.3        1 UNL1     -0.0615
     27 C         6.32307   8.94906   -2.233995 C.ar        1 UNL1     0.1347
     28 C         5.365298   9.215925   -1.271962 C.ar        1 UNL1     0.0342
     29 C         4.666532   8.079773   -0.811473 C.ar        1 UNL1     0.1435
     30 C         4.887264   6.798668   -1.318689 C.ar        1 UNL1     0.0774
     31 O         3.626903   8.190629   0.044032 O.3        1 UNL1     -0.4436
     32 C         2.907094   6.956719   -0.098136 C.3        1 UNL1     0.3143
     33 C         3.92113   5.965933   -0.633195 C.2        1 UNL1     0.2504
     34 C         4.916909   10.580784   -0.829009 C.3        1 UNL1     -0.0327
     35 O         2.549613   6.517991   1.21829 O.2        1 UNL1     -0.4528
     36 C         -0.690817   4.580636   0.825403 C.3        1 UNL1     0.0854
     37 C         -0.995587   3.320484   -0.072737 C.3        1 UNL1     0.0236
     38 C         -1.592528   2.057567   0.714946 C.3        1 UNL1     0.1131
     39 C         -0.863479   1.5265   2.014456 C.3        1 UNL1     0.0200
     40 C         0.798034   1.383778   2.052436 C.3        1 UNL1     0.0661
     41 C         1.756589   0.617849   0.881054 C.3        1 UNL1     0.0091
     42 C         3.462515   0.983951   0.31432 C.3        1 UNL1     0.0661
     43 C         7.477281   7.47743   -3.898252 C.2        1 UNL1     0.2131
     44 O         7.874301   8.37696   -4.616554 O.2        1 UNL1     -0.2851
     45 O         7.132712   9.986054   -2.692864 O.3        1 UNL1     -0.5056
     46 O         3.939432   4.76229   -0.503728 O.2        1 UNL1     -0.2836
     47 C         5.564762   1.326862   1.920801 C.3        1 UNL1     -0.0566
     48 O         3.913658   -0.426464   0.393785 O.3        1 UNL1     -0.3909
     49 C         0.920536   0.385135   -0.357636 C.3        1 UNL1     -0.0577
     50 O         1.396851   2.602256   2.445438 O.3        1 UNL1     -0.3910
     51 O         -0.812031   4.389274   2.216848 O.3        1 UNL1     -0.3753
     52 C         0.047032   3.163035   -1.227339 C.3        1 UNL1     -0.0564
     53 O         -2.194987   1.018499   -0.184891 O.3        1 UNL1     -0.4608
     54 C         -2.414033   -0.292329   0.149294 C.2        1 UNL1     0.3042
     55 O         -1.84048   -1.283615   -0.300404 O.2        1 UNL1     -0.2512
     56 C         -3.441363   -0.473801   1.230207 C.3        1 UNL1     0.0332
     57 C         -1.583347   2.192916   3.277728 C.3        1 UNL1     -0.0567
     58 C         1.829495   7.201101   -1.180072 C.3        1 UNL1     0.0210
     59 C         -1.156819   5.560539   2.955174 C.3        1 UNL1     0.0372
     60 C         0.63667   5.212252   0.593021 C.2        1 UNL1     -0.0208
     61 C         1.550446   5.64814   1.461214 C.2        1 UNL1     0.0882
     62 H         4.687578   2.740439   0.572963 H        1 UNL1     0.0365
     63 H         6.33091   3.619908   -0.261437 H        1 UNL1     0.0576
     64 H         8.33852   1.505595   -1.259413 H        1 UNL1     0.0615
     65 H         8.26553   4.623059   -1.443678 H        1 UNL1     0.0622
     66 H         -1.437318   5.326207   0.517334 H        1 UNL1     0.0645
     67 H         -1.862786   3.629002   -0.682116 H        1 UNL1     0.0362
     68 H         -2.539701   2.49244   1.068881 H        1 UNL1     0.0741
     69 H         -1.192903   0.514627   2.209397 H        1 UNL1     0.0359
     70 H         0.912562   0.722713   2.932741 H        1 UNL1     0.0600
     71 H         1.802712   -0.403689   1.306837 H        1 UNL1     0.0348
     72 H         3.357593   1.470943   1.294701 H        1 UNL1     0.0602
     73 H         0.752322   5.410794   -0.443538 H        1 UNL1     0.0628
     74 H         1.535228   5.436321   2.530858 H        1 UNL1     0.1022
     75 H         10.94572   2.276354   -3.44908 H        1 UNL1     0.0279
     76 H         10.783302   3.465442   -4.679117 H        1 UNL1     0.0279
     77 H         11.904206   3.687806   -3.275754 H        1 UNL1     0.0279
     78 H         9.048862   4.825775   -5.032278 H        1 UNL1     0.1553
     79 H         7.773438   3.351433   -4.677545 H        1 UNL1     0.1484
     80 H         4.024993   2.742095   -4.809314 H        1 UNL1     0.0317
     81 H         4.756183   4.271531   -5.274192 H        1 UNL1     0.0317
     82 H         6.668366   3.086471   -6.384549 H        1 UNL1     0.0428
     83 H         5.112191   2.608311   -7.025941 H        1 UNL1     0.0428
     84 H         6.900862   -0.02821   -4.205915 H        1 UNL1     0.0428
     85 H         7.807447   1.384771   -4.619088 H        1 UNL1     0.0428
     86 H         6.518809   1.452404   -2.483745 H        1 UNL1     0.0317
     87 H         5.021897   1.223377   -3.264227 H        1 UNL1     0.0317
     88 H         7.250353   0.901401   -7.391088 H        1 UNL1     0.0429
     89 H         6.891058   -0.587711   -6.513769 H        1 UNL1     0.0429
     90 H         4.34733   0.211777   -7.309416 H        1 UNL1     0.0308
     91 H         6.27028   1.071209   -9.54972 H        1 UNL1     0.0233
     92 H         4.501725   0.915015   -9.702396 H        1 UNL1     0.0233
     93 H         5.192503   2.146757   -8.667872 H        1 UNL1     0.0233
     94 H         4.642767   -1.456739   -9.176054 H        1 UNL1     0.0233
     95 H         6.34449   -1.569009   -8.700804 H        1 UNL1     0.0233
     96 H         5.068652   -2.031973   -7.551067 H        1 UNL1     0.0233
     97 H         4.125019   10.528865   -0.087764 H        1 UNL1     0.0280
     98 H         5.729539   11.151735   -0.361139 H        1 UNL1     0.0280
     99 H         4.54066   11.145581   -1.69765 H        1 UNL1     0.0280
     100 H         6.663799   10.736196   -3.013846 H        1 UNL1     0.2922
     101 H         4.703628   0.89121   2.427072 H        1 UNL1     0.0236
     102 H         6.015221   2.132378   2.499779 H        1 UNL1     0.0236
     103 H         6.322389   0.525498   1.917471 H        1 UNL1     0.0236
     104 H         4.335015   -0.552641   1.266429 H        1 UNL1     0.2098
     105 H         0.705288   1.284196   -0.929623 H        1 UNL1     0.0234
     106 H         1.290073   -0.401565   -1.015263 H        1 UNL1     0.0234
     107 H         0.0   -0.0   0.0 H        1 UNL1     0.0234
     108 H         1.195893   3.260887   1.752914 H        1 UNL1     0.2098
     109 H         1.072758   3.05093   -0.849148 H        1 UNL1     0.0234
     110 H         -0.185236   2.336243   -1.9072 H        1 UNL1     0.0234
     111 H         0.065502   4.046563   -1.879246 H        1 UNL1     0.0234
     112 H         -3.561873   -1.538059   1.454213 H        1 UNL1     0.0342
     113 H         -3.193986   0.089076   2.128994 H        1 UNL1     0.0342
     114 H         -4.403341   -0.097387   0.855941 H        1 UNL1     0.0342
     115 H         -2.646947   1.9226   3.331319 H        1 UNL1     0.0234
     116 H         -1.129591   1.932153   4.235933 H        1 UNL1     0.0234
     117 H         -1.645821   3.293167   3.218685 H        1 UNL1     0.0234
     118 H         0.928344   7.686023   -0.765603 H        1 UNL1     0.0309
     119 H         2.196291   7.790601   -2.02633 H        1 UNL1     0.0309
     120 H         1.441748   6.268916   -1.605265 H        1 UNL1     0.0309
     121 H         -0.354085   6.284623   2.818506 H        1 UNL1     0.0524
     122 H         -2.088452   6.025163   2.591552 H        1 UNL1     0.0524
     123 H         -1.270153   5.32095   4.008666 H        1 UNL1     0.0524
@<TRIPOS>BOND
     1     1     2    1
     2     1    42    1
     3     2     3    2
     4     3     4    1
     5     4     5    2
     6     5     7    1
     7     6    75    1
     8     6    76    1
     9     6    77    1
    10     7     9   am
    11     9    10    1
    12    10    11    2
    13    10    43    1
    14    11    14    1
    15    11    15    1
    16    12    13   ar
    17    12    27   ar
    18    12    43    1
    19    13    14    1
    20    13    30   ar
    21    14    17    2
    22    15    16    1
    23    16    17    1
    24    16    18    1
    25    16    22    1
    26    18    19    1
    27    19    20    1
    28    20    21    1
    29    21    22    1
    30    23    24    1
    31    23    88    1
    32    23    89    1
    33    24    25    1
    34    24    26    1
    35    24    90    1
    36    25    91    1
    37    25    92    1
    38    25    93    1
    39    26    94    1
    40    26    95    1
    41    26    96    1
    42    27    28   ar
    43    28    29   ar
    44    29    30   ar
    45    29    31    1
    46    30    33    1
    47    31    32    1
    48    32    33    1
    49    32    35    1
    50    34    97    1
    51    34    98    1
    52    34    99    1
    53    35    61    1
    54    36    37    1
    55    36    60    1
    56    37    38    1
    57    38    39    1
    58    39    40    1
    59    40    41    1
    60    41    42    1
    61    45   100    1
    62    47   101    1
    63    47   102    1
    64    47   103    1
    65    48   104    1
    66    49   105    1
    67    49   106    1
    68    49   107    1
    69    50   108    1
    70    51    59    1
    71    52   109    1
    72    52   110    1
    73    52   111    1
    74    53    54    1
    75    54    55    2
    76    54    56    1
    77    56   112    1
    78    56   113    1
    79    56   114    1
    80    57   115    1
    81    57   116    1
    82    57   117    1
    83    58   118    1
    84    58   119    1
    85    58   120    1
    86    59   121    1
    87    59   122    1
    88    59   123    1
    89    60    61    2
    90     1    47    1
    91     1    62    1
    92     2    63    1
    93     3    64    1
    94     4    65    1
    95     5     6    1
    96     7     8    2
    97     9    78    1
    98    15    79    1
    99    18    80    1
   100    18    81    1
   101    19    82    1
   102    19    83    1
   103    20    23    1
   104    21    84    1
   105    21    85    1
   106    22    86    1
   107    22    87    1
   108    27    45    1
   109    28    34    1
   110    32    58    1
   111    33    46    2
   112    36    51    1
   113    36    66    1
   114    37    52    1
   115    37    67    1
   116    38    53    1
   117    38    68    1
   118    42    48    1
   119    42    72    1
   120    43    44    2
   121    60    73    1
   122    61    74    1
   123    39    69    1
   124    39    57    1
   125    40    70    1
   126    40    50    1
   127    41    71    1
   128    41    49    1
