@<TRIPOS>MOLECULE
*****
 123 128 0 0 0
SMALL
GASTEIGER

@<TRIPOS>ATOM
     1 C         -3.267762   -0.140021   -2.686069 C.3        1 UNL1     0.0009
     2 C         -5.001723   -0.690296   -2.32884 C.2        1 UNL1     -0.0787
     3 C         -6.052657   -1.680261   -2.436328 C.2        1 UNL1     -0.0649
     4 C         -7.5831   -1.655918   -1.712789 C.2        1 UNL1     -0.0542
     5 C         -8.694108   -2.442145   -1.319616 C.2        1 UNL1     0.0115
     6 C         -9.338074   -3.851571   -1.42984 C.3        1 UNL1     -0.0348
     7 C         -9.72954   -1.843397   -0.248928 C.2        1 UNL1     0.2441
     8 O         -10.819233   -1.383957   -0.56199 O.2        1 UNL1     -0.2702
     9 N         -9.414363   -2.118974   1.093038 N.am        1 UNL1     -0.2772
     10 C         -8.58113   -1.14824   1.599714 C.2        1 UNL1     0.1049
     11 C         -7.294689   -1.290202   1.33677 C.2        1 UNL1     0.0801
     12 C         -8.308495   1.331199   1.787822 C.ar        1 UNL1     0.0753
     13 C         -6.977319   1.143315   1.29662 C.ar        1 UNL1     0.0305
     14 C         -6.385282   -0.187501   1.18055 C.2        1 UNL1     0.0924
     15 N         -6.627503   -2.340977   0.829562 N.pl3        1 UNL1     -0.3170
     16 C         -5.221218   -2.045726   0.903338 C.3        1 UNL1     0.1275
     17 N         -5.147732   -0.539485   0.843647 N.2        1 UNL1     -0.2557
     18 C         -4.749585   -2.437687   2.300346 C.3        1 UNL1     0.0016
     19 C         -5.097789   -3.898262   2.539227 C.3        1 UNL1     0.0026
     20 N         -4.44494   -4.707601   1.519527 N.3        1 UNL1     -0.3018
     21 C         -4.788806   -4.363532   0.138317 C.3        1 UNL1     0.0026
     22 C         -4.42647   -2.893666   -0.081 C.3        1 UNL1     0.0016
     23 C         -4.463776   -6.12401   1.826242 C.3        1 UNL1     0.0012
     24 C         -3.530955   -6.431619   3.008181 C.3        1 UNL1     -0.0339
     25 C         -2.871119   -7.812379   2.859269 C.3        1 UNL1     -0.0615
     26 C         -2.495549   -5.330159   3.154808 C.3        1 UNL1     -0.0615
     27 C         -8.822658   2.606558   2.009668 C.ar        1 UNL1     0.1347
     28 C         -8.089792   3.763813   1.815455 C.ar        1 UNL1     0.0342
     29 C         -6.798693   3.556322   1.285194 C.ar        1 UNL1     0.1435
     30 C         -6.283168   2.286228   1.023823 C.ar        1 UNL1     0.0774
     31 O         -5.922868   4.575094   1.143629 O.3        1 UNL1     -0.4436
     32 C         -4.639245   3.939313   1.048924 C.3        1 UNL1     0.3143
     33 C         -4.929194   2.530428   0.572285 C.2        1 UNL1     0.2504
     34 C         -8.483105   5.142745   2.267065 C.3        1 UNL1     -0.0327
     35 O         -3.915916   4.594176   -0.000458 O.2        1 UNL1     -0.4528
     36 C         -0.249135   4.339603   0.947168 C.3        1 UNL1     0.0854
     37 C         0.617661   3.054634   1.238789 C.3        1 UNL1     0.0236
     38 C         1.947749   2.921261   0.352888 C.3        1 UNL1     0.1131
     39 C         1.861371   3.066458   -1.21992 C.3        1 UNL1     0.0200
     40 C         0.632778   2.32529   -2.070606 C.3        1 UNL1     0.0661
     41 C         0.166747   0.700269   -1.930134 C.3        1 UNL1     0.0091
     42 C         -1.481307   -0.084976   -2.110996 C.3        1 UNL1     0.0661
     43 C         -9.092582   0.120944   2.138177 C.2        1 UNL1     0.2131
     44 O         -10.03905   0.130604   2.904234 O.2        1 UNL1     -0.2851
     45 O         -10.142706   2.703179   2.445068 O.3        1 UNL1     -0.5056
     46 O         -4.212188   1.785551   -0.057727 O.2        1 UNL1     -0.2836
     47 C         -3.133834   0.290404   -4.171593 C.3        1 UNL1     -0.0566
     48 O         -0.991943   -1.174872   -2.989497 O.3        1 UNL1     -0.3909
     49 C         0.799321   0.116956   -0.686314 C.3        1 UNL1     -0.0577
     50 O         -0.51149   3.153368   -2.122176 O.3        1 UNL1     -0.3910
     51 O         0.15023   5.113559   -0.161404 O.3        1 UNL1     -0.3753
     52 C         -0.273676   1.819213   1.591212 C.3        1 UNL1     -0.0564
     53 O         2.919406   1.904947   0.877592 O.3        1 UNL1     -0.4608
     54 C         4.277519   2.069978   0.956488 C.2        1 UNL1     0.3042
     55 O         5.131716   1.601443   0.20505 O.2        1 UNL1     -0.2512
     56 C         4.70908   2.979096   2.071824 C.3        1 UNL1     0.0332
     57 C         2.209551   4.58449   -1.583961 C.3        1 UNL1     -0.0567
     58 C         -4.076598   3.873272   2.48788 C.3        1 UNL1     0.0210
     59 C         0.761573   6.360268   0.16699 C.3        1 UNL1     0.0372
     60 C         -1.708791   4.092152   0.794425 C.2        1 UNL1     -0.0208
     61 C         -2.574049   4.554457   -0.109095 C.2        1 UNL1     0.0882
     62 H         -3.459913   0.774119   -2.111493 H        1 UNL1     0.0365
     63 H         -5.399264   0.198021   -1.833538 H        1 UNL1     0.0576
     64 H         -5.874362   -2.657303   -2.89098 H        1 UNL1     0.0615
     65 H         -7.690526   -0.624937   -1.364908 H        1 UNL1     0.0622
     66 H         -0.140975   4.956356   1.850475 H        1 UNL1     0.0645
     67 H         1.039735   3.238013   2.242176 H        1 UNL1     0.0362
     68 H         2.489662   3.814585   0.699046 H        1 UNL1     0.0741
     69 H         2.749486   2.631725   -1.658861 H        1 UNL1     0.0359
     70 H         1.05398   2.371527   -3.093109 H        1 UNL1     0.0600
     71 H         0.794064   0.249946   -2.724262 H        1 UNL1     0.0348
     72 H         -1.553238   0.8903   -2.613966 H        1 UNL1     0.0602
     73 H         -2.059622   3.543411   1.632905 H        1 UNL1     0.0628
     74 H         -2.290529   5.074162   -1.024933 H        1 UNL1     0.1022
     75 H         -9.338898   -4.200316   -2.490694 H        1 UNL1     0.0279
     76 H         -8.823632   -4.661413   -0.91742 H        1 UNL1     0.0279
     77 H         -10.414171   -3.846416   -1.202488 H        1 UNL1     0.0279
     78 H         -8.921538   -3.007563   1.153118 H        1 UNL1     0.1553
     79 H         -6.986695   -3.277919   0.822188 H        1 UNL1     0.1484
     80 H         -3.66885   -2.266364   2.37401 H        1 UNL1     0.0317
     81 H         -5.219532   -1.807618   3.063113 H        1 UNL1     0.0317
     82 H         -6.185366   -4.062844   2.538876 H        1 UNL1     0.0428
     83 H         -4.754373   -4.156333   3.541482 H        1 UNL1     0.0428
     84 H         -4.225546   -4.931712   -0.60849 H        1 UNL1     0.0428
     85 H         -5.839287   -4.590722   -0.090138 H        1 UNL1     0.0428
     86 H         -4.565766   -2.714673   -1.131022 H        1 UNL1     0.0317
     87 H         -3.34852   -2.748333   0.060418 H        1 UNL1     0.0317
     88 H         -5.488427   -6.398625   2.109036 H        1 UNL1     0.0429
     89 H         -4.200537   -6.725951   0.946955 H        1 UNL1     0.0429
     90 H         -4.113027   -6.421152   3.937318 H        1 UNL1     0.0308
     91 H         -2.481853   -7.960128   1.847467 H        1 UNL1     0.0233
     92 H         -2.056626   -7.930792   3.577731 H        1 UNL1     0.0233
     93 H         -3.571974   -8.633298   3.053511 H        1 UNL1     0.0233
     94 H         -1.62359   -5.702075   3.703628 H        1 UNL1     0.0233
     95 H         -2.157683   -5.001204   2.168098 H        1 UNL1     0.0233
     96 H         -2.901875   -4.469702   3.693769 H        1 UNL1     0.0233
     97 H         -7.746704   5.577902   2.93608 H        1 UNL1     0.0280
     98 H         -8.576175   5.842688   1.426427 H        1 UNL1     0.0280
     99 H         -9.447754   5.095915   2.798437 H        1 UNL1     0.0280
     100 H         -10.758142   2.196959   1.944465 H        1 UNL1     0.2922
     101 H         -3.098842   1.377634   -4.237636 H        1 UNL1     0.0236
     102 H         -3.906513   -0.133583   -4.81205 H        1 UNL1     0.0236
     103 H         -2.183161   -0.047746   -4.616641 H        1 UNL1     0.0236
     104 H         -1.210877   -0.932176   -3.910441 H        1 UNL1     0.2098
     105 H         1.258929   -0.857543   -0.830968 H        1 UNL1     0.0234
     106 H         1.486768   0.785752   -0.168572 H        1 UNL1     0.0234
     107 H         0.0   0.0   0.0 H        1 UNL1     0.0234
     108 H         -1.258014   2.598423   -2.419675 H        1 UNL1     0.2098
     109 H         -0.882419   1.988427   2.490384 H        1 UNL1     0.0234
     110 H         -0.920266   1.505214   0.764732 H        1 UNL1     0.0234
     111 H         0.333818   0.930093   1.806534 H        1 UNL1     0.0234
     112 H         5.798236   3.084213   2.065966 H        1 UNL1     0.0342
     113 H         4.222388   3.951809   2.018883 H        1 UNL1     0.0342
     114 H         4.420743   2.514034   3.02458 H        1 UNL1     0.0342
     115 H         2.730343   4.664122   -2.54813 H        1 UNL1     0.0234
     116 H         1.338862   5.24191   -1.625781 H        1 UNL1     0.0234
     117 H         2.94898   5.041459   -0.903987 H        1 UNL1     0.0234
     118 H         -3.217021   4.551772   2.628488 H        1 UNL1     0.0309
     119 H         -4.829394   4.085477   3.253694 H        1 UNL1     0.0309
     120 H         -3.663842   2.888574   2.733051 H        1 UNL1     0.0309
     121 H         0.604516   7.035956   -0.673328 H        1 UNL1     0.0524
     122 H         0.308207   6.826862   1.057376 H        1 UNL1     0.0524
     123 H         1.824551   6.222626   0.343695 H        1 UNL1     0.0524
@<TRIPOS>BOND
     1     1     2    1
     2     1    42    1
     3     2     3    2
     4     3     4    1
     5     4     5    2
     6     5     7    1
     7     6    75    1
     8     6    76    1
     9     6    77    1
    10     7     9   am
    11     9    10    1
    12    10    11    2
    13    10    43    1
    14    11    14    1
    15    11    15    1
    16    12    13   ar
    17    12    27   ar
    18    12    43    1
    19    13    14    1
    20    13    30   ar
    21    14    17    2
    22    15    16    1
    23    16    17    1
    24    16    18    1
    25    16    22    1
    26    18    19    1
    27    19    20    1
    28    20    21    1
    29    21    22    1
    30    23    24    1
    31    23    88    1
    32    23    89    1
    33    24    25    1
    34    24    26    1
    35    24    90    1
    36    25    91    1
    37    25    92    1
    38    25    93    1
    39    26    94    1
    40    26    95    1
    41    26    96    1
    42    27    28   ar
    43    28    29   ar
    44    29    30   ar
    45    29    31    1
    46    30    33    1
    47    31    32    1
    48    32    33    1
    49    32    35    1
    50    34    97    1
    51    34    98    1
    52    34    99    1
    53    35    61    1
    54    36    37    1
    55    36    60    1
    56    37    38    1
    57    38    39    1
    58    39    40    1
    59    40    41    1
    60    41    42    1
    61    45   100    1
    62    47   101    1
    63    47   102    1
    64    47   103    1
    65    48   104    1
    66    49   105    1
    67    49   106    1
    68    49   107    1
    69    50   108    1
    70    51    59    1
    71    52   109    1
    72    52   110    1
    73    52   111    1
    74    53    54    1
    75    54    55    2
    76    54    56    1
    77    56   112    1
    78    56   113    1
    79    56   114    1
    80    57   115    1
    81    57   116    1
    82    57   117    1
    83    58   118    1
    84    58   119    1
    85    58   120    1
    86    59   121    1
    87    59   122    1
    88    59   123    1
    89    60    61    2
    90     1    47    1
    91     1    62    1
    92     2    63    1
    93     3    64    1
    94     4    65    1
    95     5     6    1
    96     7     8    2
    97     9    78    1
    98    15    79    1
    99    18    80    1
   100    18    81    1
   101    19    82    1
   102    19    83    1
   103    20    23    1
   104    21    84    1
   105    21    85    1
   106    22    86    1
   107    22    87    1
   108    27    45    1
   109    28    34    1
   110    32    58    1
   111    33    46    2
   112    36    51    1
   113    36    66    1
   114    37    52    1
   115    37    67    1
   116    38    53    1
   117    38    68    1
   118    42    48    1
   119    42    72    1
   120    43    44    2
   121    60    73    1
   122    61    74    1
   123    39    69    1
   124    39    57    1
   125    40    70    1
   126    40    50    1
   127    41    71    1
   128    41    49    1
