@<TRIPOS>MOLECULE
*****
 123 128 0 0 0
SMALL
GASTEIGER

@<TRIPOS>ATOM
     1 C         5.167877   1.744325   0.499959 C.3        1 UNL1     0.0009
     2 C         6.60648   2.549667   -0.347912 C.2        1 UNL1     -0.0787
     3 C         7.889349   2.450771   -1.011623 C.2        1 UNL1     -0.0649
     4 C         8.76886   3.685491   -1.765469 C.2        1 UNL1     -0.0542
     5 C         9.790584   3.977684   -2.702368 C.2        1 UNL1     0.0115
     6 C         10.919725   3.351692   -3.56637 C.3        1 UNL1     -0.0348
     7 C         9.887922   5.46104   -3.308312 C.2        1 UNL1     0.2441
     8 O         10.711774   6.28201   -2.929099 O.2        1 UNL1     -0.2702
     9 N         9.139712   5.668851   -4.480126 N.am        1 UNL1     -0.2772
     10 C         7.856768   6.05634   -4.168309 C.2        1 UNL1     0.1049
     11 C         7.009841   5.085436   -3.877991 C.2        1 UNL1     0.0801
     12 C         6.557248   7.663508   -2.759199 C.ar        1 UNL1     0.0753
     13 C         5.796693   6.535999   -2.31323 C.ar        1 UNL1     0.0305
     14 C         5.913743   5.230394   -2.958789 C.2        1 UNL1     0.0924
     15 N         7.13179   3.756417   -4.03725 N.pl3        1 UNL1     -0.3170
     16 C         5.861014   3.158046   -3.725263 C.3        1 UNL1     0.1275
     17 N         5.223719   4.113455   -2.746095 N.2        1 UNL1     -0.2557
     18 C         5.010222   3.218057   -4.990275 C.3        1 UNL1     0.0016
     19 C         5.766424   2.533748   -6.11787 C.3        1 UNL1     0.0026
     20 N         6.034991   1.155353   -5.73196 N.3        1 UNL1     -0.3018
     21 C         6.79626   0.994087   -4.491463 C.3        1 UNL1     0.0026
     22 C         6.01621   1.684843   -3.37152 C.3        1 UNL1     0.0016
     23 C         6.480695   0.33581   -6.841167 C.3        1 UNL1     0.0012
     24 C         5.325525   0.08377   -7.822908 C.3        1 UNL1     -0.0339
     25 C         5.344149   1.091659   -8.983886 C.3        1 UNL1     -0.0615
     26 C         5.372336   -1.348725   -8.325447 C.3        1 UNL1     -0.0615
     27 C         6.352611   8.931197   -2.219562 C.ar        1 UNL1     0.1347
     28 C         5.392213   9.201151   -1.261016 C.ar        1 UNL1     0.0342
     29 C         4.689129   8.067065   -0.802012 C.ar        1 UNL1     0.1435
     30 C         4.908483   6.785023   -1.307454 C.ar        1 UNL1     0.0774
     31 O         3.646859   8.181125   0.049852 O.3        1 UNL1     -0.4436
     32 C         2.92455   6.948847   -0.093792 C.3        1 UNL1     0.3143
     33 C         3.938   5.95518   -0.6246 C.2        1 UNL1     0.2504
     34 C         4.945626   10.567447   -0.82068 C.3        1 UNL1     -0.0327
     35 O         2.561518   6.512043   1.221754 O.2        1 UNL1     -0.4528
     36 C         -0.682239   4.582226   0.819349 C.3        1 UNL1     0.0854
     37 C         -0.986998   3.322095   -0.078825 C.3        1 UNL1     0.0236
     38 C         -1.589682   2.061259   0.707819 C.3        1 UNL1     0.1131
     39 C         -0.86636   1.529472   2.010231 C.3        1 UNL1     0.0200
     40 C         0.794663   1.382757   2.053995 C.3        1 UNL1     0.0661
     41 C         1.755349   0.613569   0.8865 C.3        1 UNL1     0.0091
     42 C         3.46408   0.975085   0.325301 C.3        1 UNL1     0.0661
     43 C         7.508921   7.455441   -3.878701 C.2        1 UNL1     0.2131
     44 O         7.910569   8.35343   -4.596358 O.2        1 UNL1     -0.2851
     45 O         7.166325   9.965859   -2.676489 O.3        1 UNL1     -0.5056
     46 O         3.952943   4.7516   -0.494116 O.2        1 UNL1     -0.2836
     47 C         5.561661   1.314194   1.938674 C.3        1 UNL1     -0.0566
     48 O         3.911529   -0.436354   0.407425 O.3        1 UNL1     -0.3909
     49 C         0.922964   0.381887   -0.354851 C.3        1 UNL1     -0.0577
     50 O         1.395088   2.600097   2.44807 O.3        1 UNL1     -0.3910
     51 O         -0.808663   4.392274   2.210523 O.3        1 UNL1     -0.3753
     52 C         0.059168   3.161195   -1.229736 C.3        1 UNL1     -0.0564
     53 O         -2.191585   1.022931   -0.193243 O.3        1 UNL1     -0.4608
     54 C         -2.415337   -0.286991   0.141375 C.2        1 UNL1     0.3042
     55 O         -1.843154   -1.280262   -0.305678 O.2        1 UNL1     -0.2512
     56 C         -3.446545   -0.46466   1.219224 C.3        1 UNL1     0.0332
     57 C         -1.588915   2.198642   3.270509 C.3        1 UNL1     -0.0567
     58 C         1.851243   7.19497   -1.179593 C.3        1 UNL1     0.0210
     59 C         -1.16083   5.563259   2.945805 C.3        1 UNL1     0.0372
     60 C         0.647559   5.210439   0.590997 C.2        1 UNL1     -0.0208
     61 C         1.559423   5.644809   1.461957 C.2        1 UNL1     0.0882
     62 H         4.692509   2.728808   0.586728 H        1 UNL1     0.0365
     63 H         6.340804   3.603626   -0.242757 H        1 UNL1     0.0576
     64 H         8.346675   1.483658   -1.232196 H        1 UNL1     0.0615
     65 H         8.281871   4.60114   -1.419185 H        1 UNL1     0.0622
     66 H         -1.425876   5.329354   0.508142 H        1 UNL1     0.0645
     67 H         -1.851363   3.632223   -0.691404 H        1 UNL1     0.0362
     68 H         -2.537   2.498709   1.058174 H        1 UNL1     0.0741
     69 H         -1.198899   0.518557   2.204851 H        1 UNL1     0.0359
     70 H         0.904585   0.722124   2.935211 H        1 UNL1     0.0600
     71 H         1.797542   -0.407735   1.31325 H        1 UNL1     0.0348
     72 H         3.356996   1.463116   1.304931 H        1 UNL1     0.0602
     73 H         0.767227   5.407868   -0.445318 H        1 UNL1     0.0628
     74 H         1.540043   5.433887   2.531711 H        1 UNL1     0.1022
     75 H         10.96319   2.246343   -3.413563 H        1 UNL1     0.0279
     76 H         10.807851   3.434833   -4.645092 H        1 UNL1     0.0279
     77 H         11.924497   3.655608   -3.238089 H        1 UNL1     0.0279
     78 H         9.077928   4.799079   -5.00525 H        1 UNL1     0.1553
     79 H         7.797732   3.328115   -4.653701 H        1 UNL1     0.1484
     80 H         4.048292   2.727749   -4.797778 H        1 UNL1     0.0317
     81 H         4.784768   4.255037   -5.261373 H        1 UNL1     0.0317
     82 H         6.697849   3.064459   -6.364255 H        1 UNL1     0.0428
     83 H         5.142716   2.589554   -7.010576 H        1 UNL1     0.0428
     84 H         6.915361   -0.049026   -4.182368 H        1 UNL1     0.0428
     85 H         7.826773   1.361423   -4.593567 H        1 UNL1     0.0428
     86 H         6.531027   1.43389   -2.462688 H        1 UNL1     0.0317
     87 H         5.036235   1.207862   -3.248092 H        1 UNL1     0.0317
     88 H         7.275781   0.878552   -7.368959 H        1 UNL1     0.0429
     89 H         6.914903   -0.609006   -6.489656 H        1 UNL1     0.0429
     90 H         4.372709   0.183086   -7.289532 H        1 UNL1     0.0308
     91 H         6.292074   1.053076   -9.52891 H        1 UNL1     0.0233
     92 H         4.523224   0.89668   -9.677914 H        1 UNL1     0.0233
     93 H         5.215971   2.125634   -8.641393 H        1 UNL1     0.0233
     94 H         4.67581   -1.478906   -9.160756 H        1 UNL1     0.0233
     95 H         6.377633   -1.586002   -8.68467 H        1 UNL1     0.0233
     96 H         5.102814   -2.057171   -7.537139 H        1 UNL1     0.0233
     97 H         4.151088   10.518041   -0.082101 H        1 UNL1     0.0280
     98 H         5.758037   11.136805   -0.350493 H        1 UNL1     0.0280
     99 H         4.573712   11.132457   -1.691048 H        1 UNL1     0.0280
     100 H         6.700325   10.716614   -3.000267 H        1 UNL1     0.2922
     101 H         4.698153   0.879611   2.441813 H        1 UNL1     0.0236
     102 H         6.010702   2.119494   2.51905 H        1 UNL1     0.0236
     103 H         6.31849   0.51207   1.938576 H        1 UNL1     0.0236
     104 H         4.3296   -0.562851   1.281603 H        1 UNL1     0.2098
     105 H         0.712481   1.280897   -0.928687 H        1 UNL1     0.0234
     106 H         1.292414   -0.406742   -1.010212 H        1 UNL1     0.0234
     107 H         0.0   -0.0   0.0 H        1 UNL1     0.0234
     108 H         1.195696   3.259391   1.755724 H        1 UNL1     0.2098
     109 H         1.083324   3.04691   -0.847958 H        1 UNL1     0.0234
     110 H         -0.172783   2.334423   -1.909729 H        1 UNL1     0.0234
     111 H         0.082003   4.044152   -1.882278 H        1 UNL1     0.0234
     112 H         -3.57412   -1.528672   1.44047 H        1 UNL1     0.0342
     113 H         -3.198065   0.094641   2.119937 H        1 UNL1     0.0342
     114 H         -4.40524   -0.081528   0.843355 H        1 UNL1     0.0342
     115 H         -2.653344   1.930946   3.320685 H        1 UNL1     0.0234
     116 H         -1.139064   1.93755   4.230464 H        1 UNL1     0.0234
     117 H         -1.64852   3.298994   3.210379 H        1 UNL1     0.0234
     118 H         0.949862   7.682405   -0.768588 H        1 UNL1     0.0309
     119 H         2.222352   7.782901   -2.025063 H        1 UNL1     0.0309
     120 H         1.462691   6.263385   -1.605367 H        1 UNL1     0.0309
     121 H         -0.361648   6.291236   2.809003 H        1 UNL1     0.0524
     122 H         -2.094244   6.022257   2.579613 H        1 UNL1     0.0524
     123 H         -1.274734   5.325275   3.9996 H        1 UNL1     0.0524
@<TRIPOS>BOND
     1     1     2    1
     2     1    42    1
     3     2     3    2
     4     3     4    1
     5     4     5    2
     6     5     7    1
     7     6    75    1
     8     6    76    1
     9     6    77    1
    10     7     9   am
    11     9    10    1
    12    10    11    2
    13    10    43    1
    14    11    14    1
    15    11    15    1
    16    12    13   ar
    17    12    27   ar
    18    12    43    1
    19    13    14    1
    20    13    30   ar
    21    14    17    2
    22    15    16    1
    23    16    17    1
    24    16    18    1
    25    16    22    1
    26    18    19    1
    27    19    20    1
    28    20    21    1
    29    21    22    1
    30    23    24    1
    31    23    88    1
    32    23    89    1
    33    24    25    1
    34    24    26    1
    35    24    90    1
    36    25    91    1
    37    25    92    1
    38    25    93    1
    39    26    94    1
    40    26    95    1
    41    26    96    1
    42    27    28   ar
    43    28    29   ar
    44    29    30   ar
    45    29    31    1
    46    30    33    1
    47    31    32    1
    48    32    33    1
    49    32    35    1
    50    34    97    1
    51    34    98    1
    52    34    99    1
    53    35    61    1
    54    36    37    1
    55    36    60    1
    56    37    38    1
    57    38    39    1
    58    39    40    1
    59    40    41    1
    60    41    42    1
    61    45   100    1
    62    47   101    1
    63    47   102    1
    64    47   103    1
    65    48   104    1
    66    49   105    1
    67    49   106    1
    68    49   107    1
    69    50   108    1
    70    51    59    1
    71    52   109    1
    72    52   110    1
    73    52   111    1
    74    53    54    1
    75    54    55    2
    76    54    56    1
    77    56   112    1
    78    56   113    1
    79    56   114    1
    80    57   115    1
    81    57   116    1
    82    57   117    1
    83    58   118    1
    84    58   119    1
    85    58   120    1
    86    59   121    1
    87    59   122    1
    88    59   123    1
    89    60    61    2
    90     1    47    1
    91     1    62    1
    92     2    63    1
    93     3    64    1
    94     4    65    1
    95     5     6    1
    96     7     8    2
    97     9    78    1
    98    15    79    1
    99    18    80    1
   100    18    81    1
   101    19    82    1
   102    19    83    1
   103    20    23    1
   104    21    84    1
   105    21    85    1
   106    22    86    1
   107    22    87    1
   108    27    45    1
   109    28    34    1
   110    32    58    1
   111    33    46    2
   112    36    51    1
   113    36    66    1
   114    37    52    1
   115    37    67    1
   116    38    53    1
   117    38    68    1
   118    42    48    1
   119    42    72    1
   120    43    44    2
   121    60    73    1
   122    61    74    1
   123    39    69    1
   124    39    57    1
   125    40    70    1
   126    40    50    1
   127    41    71    1
   128    41    49    1
