@<TRIPOS>MOLECULE
*****
 123 128 0 0 0
SMALL
GASTEIGER

@<TRIPOS>ATOM
     1 C         4.373023   2.453045   -1.582109 C.3        1 UNL1     0.0009
     2 C         5.546723   2.489615   -3.016727 C.2        1 UNL1     -0.0787
     3 C         6.865387   2.256461   -3.567009 C.2        1 UNL1     -0.0649
     4 C         7.35788   2.390346   -5.181283 C.2        1 UNL1     -0.0542
     5 C         8.338001   2.011212   -6.131388 C.2        1 UNL1     0.0115
     6 C         9.727736   1.338539   -6.303054 C.3        1 UNL1     -0.0348
     7 C         7.99811   2.146626   -7.694438 C.2        1 UNL1     0.2441
     8 O         8.41853   3.060892   -8.390061 O.2        1 UNL1     -0.2702
     9 N         7.403751   1.009429   -8.268608 N.am        1 UNL1     -0.2772
     10 C         6.035465   1.062702   -8.13341 C.2        1 UNL1     0.1049
     11 C         5.548504   0.652377   -6.976377 C.2        1 UNL1     0.0801
     12 C         4.065765   2.566836   -8.472815 C.ar        1 UNL1     0.0753
     13 C         3.690782   2.249268   -7.128513 C.ar        1 UNL1     0.0305
     14 C         4.349382   1.17901   -6.382963 C.2        1 UNL1     0.0924
     15 N         6.148949   -0.009386   -5.972354 N.pl3        1 UNL1     -0.3170
     16 C         5.136364   -0.368619   -5.015339 C.3        1 UNL1     0.1275
     17 N         4.069982   0.686665   -5.179444 N.2        1 UNL1     -0.2557
     18 C         4.512282   -1.67832   -5.487468 C.3        1 UNL1     0.0016
     19 C         5.615627   -2.711397   -5.6517 C.3        1 UNL1     0.0026
     20 N         6.289581   -2.883433   -4.372161 N.3        1 UNL1     -0.3018
     21 C         6.869754   -1.663853   -3.806129 C.3        1 UNL1     0.0026
     22 C         5.743199   -0.641634   -3.64539 C.3        1 UNL1     0.0016
     23 C         7.150109   -4.049245   -4.340287 C.3        1 UNL1     0.0012
     24 C         6.822785   -4.992416   -5.508638 C.3        1 UNL1     -0.0339
     25 C         7.017582   -6.465555   -5.113704 C.3        1 UNL1     -0.0615
     26 C         5.413616   -4.729927   -6.010756 C.3        1 UNL1     -0.0615
     27 C         3.354782   3.504488   -9.218087 C.ar        1 UNL1     0.1347
     28 C         2.231852   4.157574   -8.742108 C.ar        1 UNL1     0.0342
     29 C         1.910461   3.865324   -7.39955 C.ar        1 UNL1     0.1435
     30 C         2.635098   2.955262   -6.628895 C.ar        1 UNL1     0.0774
     31 O         0.78177   4.337024   -6.826345 O.3        1 UNL1     -0.4436
     32 C         0.564718   3.480965   -5.694566 C.3        1 UNL1     0.3143
     33 C         1.927284   2.904672   -5.366672 C.2        1 UNL1     0.2504
     34 C         1.276945   4.980496   -9.561285 C.3        1 UNL1     -0.0327
     35 O         0.189609   4.317588   -4.593382 O.2        1 UNL1     -0.4528
     36 C         -2.079785   2.202913   -2.40567 C.3        1 UNL1     0.0854
     37 C         -1.790674   0.811098   -1.72245 C.3        1 UNL1     0.0236
     38 C         -2.022599   0.775799   -0.136036 C.3        1 UNL1     0.1131
     39 C         -1.35711   1.880857   0.779519 C.3        1 UNL1     0.0200
     40 C         0.225167   2.345402   0.528453 C.3        1 UNL1     0.0661
     41 C         1.553248   1.302476   0.366848 C.3        1 UNL1     0.0091
     42 C         3.090268   1.476964   -0.619318 C.3        1 UNL1     0.0661
     43 C         5.182453   1.799311   -9.077937 C.2        1 UNL1     0.2131
     44 O         5.345032   1.681382   -10.278936 O.2        1 UNL1     -0.2851
     45 O         3.813007   3.789109   -10.502789 O.3        1 UNL1     -0.5056
     46 O         2.342633   2.512788   -4.299074 O.2        1 UNL1     -0.2836
     47 C         4.678118   3.620877   -0.605857 C.3        1 UNL1     -0.0566
     48 O         3.985607   1.083179   0.49532 O.3        1 UNL1     -0.3909
     49 C         1.044674   -0.104676   0.146007 C.3        1 UNL1     -0.0577
     50 O         0.298131   3.373988   -0.438196 O.3        1 UNL1     -0.3910
     51 O         -2.333169   3.278252   -1.529957 O.3        1 UNL1     -0.3753
     52 C         -0.59843   0.064374   -2.405023 C.3        1 UNL1     -0.0564
     53 O         -2.085593   -0.612319   0.430962 O.3        1 UNL1     -0.4608
     54 C         -2.141447   -0.924917   1.764038 C.2        1 UNL1     0.3042
     55 O         -1.223757   -1.333644   2.474408 O.2        1 UNL1     -0.2512
     56 C         -3.484233   -0.66739   2.386387 C.3        1 UNL1     0.0332
     57 C         -2.443359   3.031206   1.0139 C.3        1 UNL1     -0.0567
     58 C         -0.356462   2.337986   -6.180938 C.3        1 UNL1     0.0210
     59 C         -3.121625   4.330093   -2.084786 C.3        1 UNL1     0.0372
     60 C         -1.035186   2.663827   -3.360411 C.2        1 UNL1     -0.0208
     61 C         -0.46989   3.862388   -3.510866 C.2        1 UNL1     0.0882
     62 H         3.576409   2.803154   -2.249598 H        1 UNL1     0.0365
     63 H         4.91724   2.946548   -3.783168 H        1 UNL1     0.0576
     64 H         7.658732   1.793655   -2.975804 H        1 UNL1     0.0615
     65 H         6.536742   2.930472   -5.660324 H        1 UNL1     0.0622
     66 H         -2.983769   2.032624   -3.007219 H        1 UNL1     0.0645
     67 H         -2.609791   0.162378   -2.078497 H        1 UNL1     0.0362
     68 H         -3.103313   0.982007   -0.103498 H        1 UNL1     0.0741
     69 H         -1.340043   1.523014   1.800335 H        1 UNL1     0.0359
     70 H         0.429314   2.854369   1.489878 H        1 UNL1     0.0600
     71 H         1.886957   1.249581   1.421741 H        1 UNL1     0.0348
     72 H         2.67787   2.491396   -0.518465 H        1 UNL1     0.0602
     73 H         -0.842382   1.893903   -4.0656 H        1 UNL1     0.0628
     74 H         -0.570029   4.684808   -2.801757 H        1 UNL1     0.1022
     75 H         10.530491   2.111093   -6.379088 H        1 UNL1     0.0279
     76 H         10.073632   0.721851   -5.476543 H        1 UNL1     0.0279
     77 H         9.833265   0.820585   -7.267569 H        1 UNL1     0.0279
     78 H         7.726995   0.173793   -7.785593 H        1 UNL1     0.1553
     79 H         7.004812   -0.522706   -6.07692 H        1 UNL1     0.1484
     80 H         3.765211   -2.003459   -4.753346 H        1 UNL1     0.0317
     81 H         3.980792   -1.539304   -6.435014 H        1 UNL1     0.0317
     82 H         6.3282   -2.424383   -6.438958 H        1 UNL1     0.0428
     83 H         5.148939   -3.636822   -5.990583 H        1 UNL1     0.0428
     84 H         7.299413   -1.804189   -2.809378 H        1 UNL1     0.0428
     85 H         7.710097   -1.292943   -4.409094 H        1 UNL1     0.0428
     86 H         6.174935   0.183169   -3.109394 H        1 UNL1     0.0317
     87 H         4.984834   -1.025676   -2.952215 H        1 UNL1     0.0317
     88 H         8.188906   -3.709947   -4.445515 H        1 UNL1     0.0429
     89 H         7.078355   -4.571635   -3.377617 H        1 UNL1     0.0429
     90 H         7.487784   -4.765705   -6.350417 H        1 UNL1     0.0308
     91 H         6.5657   -6.67952   -4.140501 H        1 UNL1     0.0233
     92 H         6.581287   -7.127871   -5.865098 H        1 UNL1     0.0233
     93 H         8.076433   -6.741781   -5.04043 H        1 UNL1     0.0233
     94 H         5.033633   -5.607187   -6.545418 H        1 UNL1     0.0233
     95 H         4.746483   -4.534562   -5.166525 H        1 UNL1     0.0233
     96 H         5.384924   -3.872595   -6.689083 H        1 UNL1     0.0233
     97 H         1.795414   5.671558   -10.219202 H        1 UNL1     0.0280
     98 H         0.648899   4.359059   -10.212922 H        1 UNL1     0.0280
     99 H         0.624662   5.564494   -8.891533 H        1 UNL1     0.0280
     100 H         3.452462   3.240975   -11.177459 H        1 UNL1     0.2922
     101 H         5.453602   3.318844   0.097745 H        1 UNL1     0.0236
     102 H         3.790813   3.998875   -0.099112 H        1 UNL1     0.0236
     103 H         5.09884   4.497054   -1.126915 H        1 UNL1     0.0236
     104 H         3.924849   0.11282   0.593724 H        1 UNL1     0.2098
     105 H         1.45543   -0.598167   -0.731238 H        1 UNL1     0.0234
     106 H         1.118445   -0.757292   1.015821 H        1 UNL1     0.0234
     107 H         -0.0   0.0   0.0 H        1 UNL1     0.0234
     108 H         1.178217   3.316084   -0.857555 H        1 UNL1     0.2098
     109 H         -0.278378   0.554508   -3.335103 H        1 UNL1     0.0234
     110 H         0.264572   -0.064231   -1.742881 H        1 UNL1     0.0234
     111 H         -0.871832   -0.960824   -2.68816 H        1 UNL1     0.0234
     112 H         -3.454848   -0.916951   3.451376 H        1 UNL1     0.0342
     113 H         -3.81601   0.358626   2.234534 H        1 UNL1     0.0342
     114 H         -4.217824   -1.329061   1.905554 H        1 UNL1     0.0342
     115 H         -3.322149   2.900942   0.367411 H        1 UNL1     0.0234
     116 H         -2.800494   3.101493   2.043251 H        1 UNL1     0.0234
     117 H         -2.097574   4.032459   0.704276 H        1 UNL1     0.0234
     118 H         -0.786061   2.546842   -7.176342 H        1 UNL1     0.0309
     119 H         0.142638   1.364027   -6.203446 H        1 UNL1     0.0309
     120 H         -1.240152   2.21127   -5.546004 H        1 UNL1     0.0309
     121 H         -2.856029   5.250414   -1.565338 H        1 UNL1     0.0524
     122 H         -2.918465   4.483973   -3.157672 H        1 UNL1     0.0524
     123 H         -4.178677   4.11703   -1.953113 H        1 UNL1     0.0524
@<TRIPOS>BOND
     1     1     2    1
     2     1    42    1
     3     2     3    2
     4     3     4    1
     5     4     5    2
     6     5     7    1
     7     6    75    1
     8     6    76    1
     9     6    77    1
    10     7     9   am
    11     9    10    1
    12    10    11    2
    13    10    43    1
    14    11    14    1
    15    11    15    1
    16    12    13   ar
    17    12    27   ar
    18    12    43    1
    19    13    14    1
    20    13    30   ar
    21    14    17    2
    22    15    16    1
    23    16    17    1
    24    16    18    1
    25    16    22    1
    26    18    19    1
    27    19    20    1
    28    20    21    1
    29    21    22    1
    30    23    24    1
    31    23    88    1
    32    23    89    1
    33    24    25    1
    34    24    26    1
    35    24    90    1
    36    25    91    1
    37    25    92    1
    38    25    93    1
    39    26    94    1
    40    26    95    1
    41    26    96    1
    42    27    28   ar
    43    28    29   ar
    44    29    30   ar
    45    29    31    1
    46    30    33    1
    47    31    32    1
    48    32    33    1
    49    32    35    1
    50    34    97    1
    51    34    98    1
    52    34    99    1
    53    35    61    1
    54    36    37    1
    55    36    60    1
    56    37    38    1
    57    38    39    1
    58    39    40    1
    59    40    41    1
    60    41    42    1
    61    45   100    1
    62    47   101    1
    63    47   102    1
    64    47   103    1
    65    48   104    1
    66    49   105    1
    67    49   106    1
    68    49   107    1
    69    50   108    1
    70    51    59    1
    71    52   109    1
    72    52   110    1
    73    52   111    1
    74    53    54    1
    75    54    55    2
    76    54    56    1
    77    56   112    1
    78    56   113    1
    79    56   114    1
    80    57   115    1
    81    57   116    1
    82    57   117    1
    83    58   118    1
    84    58   119    1
    85    58   120    1
    86    59   121    1
    87    59   122    1
    88    59   123    1
    89    60    61    2
    90     1    47    1
    91     1    62    1
    92     2    63    1
    93     3    64    1
    94     4    65    1
    95     5     6    1
    96     7     8    2
    97     9    78    1
    98    15    79    1
    99    18    80    1
   100    18    81    1
   101    19    82    1
   102    19    83    1
   103    20    23    1
   104    21    84    1
   105    21    85    1
   106    22    86    1
   107    22    87    1
   108    27    45    1
   109    28    34    1
   110    32    58    1
   111    33    46    2
   112    36    51    1
   113    36    66    1
   114    37    52    1
   115    37    67    1
   116    38    53    1
   117    38    68    1
   118    42    48    1
   119    42    72    1
   120    43    44    2
   121    60    73    1
   122    61    74    1
   123    39    69    1
   124    39    57    1
   125    40    70    1
   126    40    50    1
   127    41    71    1
   128    41    49    1
