@<TRIPOS>MOLECULE
*****
 123 128 0 0 0
SMALL
GASTEIGER

@<TRIPOS>ATOM
     1 C         0.144637   3.189544   3.14358 C.3        1 UNL1     0.0009
     2 C         -1.240888   4.127251   3.942367 C.2        1 UNL1     -0.0787
     3 C         -1.963442   5.364142   4.15228 C.2        1 UNL1     -0.0649
     4 C         -3.401858   5.595492   5.014714 C.2        1 UNL1     -0.0542
     5 C         -4.513036   6.45217   5.210838 C.2        1 UNL1     0.0115
     6 C         -5.092278   7.854903   4.878961 C.3        1 UNL1     -0.0348
     7 C         -5.82378   5.871401   5.933088 C.2        1 UNL1     0.2441
     8 O         -6.094737   6.099758   7.103969 O.2        1 UNL1     -0.2702
     9 N         -6.771086   5.30153   5.064751 N.am        1 UNL1     -0.2772
     10 C         -6.493594   3.969666   4.858695 C.2        1 UNL1     0.1049
     11 C         -5.585043   3.699948   3.938907 C.2        1 UNL1     0.0801
     12 C         -5.958013   1.845219   6.065845 C.ar        1 UNL1     0.0753
     13 C         -4.852394   1.705535   5.167678 C.ar        1 UNL1     0.0305
     14 C         -4.708955   2.561071   3.991866 C.2        1 UNL1     0.0924
     15 N         -5.028015   4.500506   3.014053 N.pl3        1 UNL1     -0.3170
     16 C         -4.225693   3.678705   2.147349 C.3        1 UNL1     0.1275
     17 N         -3.814264   2.510009   3.009091 N.2        1 UNL1     -0.2557
     18 C         -5.152909   3.110219   1.077397 C.3        1 UNL1     0.0016
     19 C         -5.852916   4.264177   0.377427 C.3        1 UNL1     0.0026
     20 N         -4.844825   5.134719   -0.211587 N.3        1 UNL1     -0.3018
     21 C         -3.867932   5.682059   0.73206 C.3        1 UNL1     0.0026
     22 C         -3.173477   4.50569   1.420379 C.3        1 UNL1     0.0016
     23 C         -5.402466   6.090765   -1.147351 C.3        1 UNL1     0.0012
     24 C         -5.878966   5.379953   -2.42385 C.3        1 UNL1     -0.0339
     25 C         -5.681633   6.263551   -3.666578 C.3        1 UNL1     -0.0615
     26 C         -5.17249   4.043458   -2.570323 C.3        1 UNL1     -0.0615
     27 C         -6.153252   0.949962   7.114899 C.ar        1 UNL1     0.1347
     28 C         -5.335436   -0.142741   7.341233 C.ar        1 UNL1     0.0342
     29 C         -4.225689   -0.232171   6.474268 C.ar        1 UNL1     0.1435
     30 C         -3.997119   0.677872   5.44141 C.ar        1 UNL1     0.0774
     31 O         -3.398264   -1.299823   6.496477 O.3        1 UNL1     -0.4436
     32 C         -2.730754   -1.267813   5.225935 C.3        1 UNL1     0.3143
     33 C         -2.81766   0.174365   4.769009 C.2        1 UNL1     0.2504
     34 C         -5.622666   -1.27903   8.282746 C.3        1 UNL1     -0.0327
     35 O         -1.345796   -1.546892   5.465223 O.2        1 UNL1     -0.4528
     36 C         -0.073579   -3.265566   2.329028 C.3        1 UNL1     0.0854
     37 C         -0.088657   -2.754538   0.837001 C.3        1 UNL1     0.0236
     38 C         1.341879   -2.742264   0.11232 C.3        1 UNL1     0.1131
     39 C         2.574661   -2.048377   0.820161 C.3        1 UNL1     0.0200
     40 C         2.395551   -0.569295   1.570276 C.3        1 UNL1     0.0661
     41 C         1.67177   0.807233   0.892838 C.3        1 UNL1     0.0091
     42 C         0.712605   2.15755   1.68154 C.3        1 UNL1     0.0661
     43 C         -6.940395   2.922641   5.789533 C.2        1 UNL1     0.2131
     44 O         -8.084461   2.913439   6.206385 O.2        1 UNL1     -0.2851
     45 O         -7.22771   1.183473   7.970732 O.3        1 UNL1     -0.5056
     46 O         -2.069263   0.778122   4.033323 O.2        1 UNL1     -0.2836
     47 C         1.494021   3.532041   3.830488 C.3        1 UNL1     -0.0566
     48 O         1.455638   3.241167   0.993941 O.3        1 UNL1     -0.3909
     49 C         0.916735   0.398795   -0.352391 C.3        1 UNL1     -0.0577
     50 O         1.964564   -0.733844   2.906276 O.3        1 UNL1     -0.3910
     51 O         1.200136   -3.479814   2.893987 O.3        1 UNL1     -0.3753
     52 C         -1.138912   -1.616165   0.622481 C.3        1 UNL1     -0.0564
     53 O         1.258422   -2.595685   -1.378946 O.3        1 UNL1     -0.4608
     54 C         2.267947   -2.150845   -2.191907 C.2        1 UNL1     0.3042
     55 O         2.381089   -1.036211   -2.700462 O.2        1 UNL1     -0.2512
     56 C         3.357692   -3.162455   -2.405958 C.3        1 UNL1     0.0332
     57 C         3.386476   -3.185451   1.598745 C.3        1 UNL1     -0.0567
     58 C         -3.569961   -2.145846   4.268689 C.3        1 UNL1     0.0210
     59 C         1.215628   -4.349769   4.024829 C.3        1 UNL1     0.0372
     60 C         -0.833157   -2.420962   3.290718 C.2        1 UNL1     -0.0208
     61 C         -0.506632   -1.993666   4.511187 C.2        1 UNL1     0.0882
     62 H         -0.225699   2.273978   3.620343 H        1 UNL1     0.0365
     63 H         -1.670231   3.351925   4.580335 H        1 UNL1     0.0576
     64 H         -1.709791   6.275112   3.60556 H        1 UNL1     0.0615
     65 H         -3.518858   4.667054   5.580222 H        1 UNL1     0.0622
     66 H         -0.598583   -4.230604   2.295575 H        1 UNL1     0.0645
     67 H         -0.607877   -3.55661   0.284144 H        1 UNL1     0.0362
     68 H         1.565182   -3.819955   0.127818 H        1 UNL1     0.0741
     69 H         3.334547   -1.846848   0.076946 H        1 UNL1     0.0359
     70 H         3.457511   -0.269698   1.657133 H        1 UNL1     0.0600
     71 H         2.562813   1.298483   0.455035 H        1 UNL1     0.0348
     72 H         1.280434   1.676143   2.490943 H        1 UNL1     0.0602
     73 H         -1.816371   -2.26806   2.920368 H        1 UNL1     0.0628
     74 H         0.493699   -2.059412   4.940434 H        1 UNL1     0.1022
     75 H         -4.323755   8.64685   5.04992 H        1 UNL1     0.0279
     76 H         -5.381179   8.028191   3.844757 H        1 UNL1     0.0279
     77 H         -5.882464   8.165041   5.578333 H        1 UNL1     0.0279
     78 H         -6.729392   5.766624   4.160302 H        1 UNL1     0.1553
     79 H         -5.426394   5.373375   2.72024 H        1 UNL1     0.1484
     80 H         -4.561706   2.513462   0.372325 H        1 UNL1     0.0317
     81 H         -5.891277   2.432609   1.519335 H        1 UNL1     0.0317
     82 H         -6.504858   4.822407   1.065368 H        1 UNL1     0.0428
     83 H         -6.510313   3.836376   -0.380113 H        1 UNL1     0.0428
     84 H         -3.076076   6.26688   0.253771 H        1 UNL1     0.0428
     85 H         -4.330832   6.386218   1.437185 H        1 UNL1     0.0428
     86 H         -2.379214   4.937553   2.000575 H        1 UNL1     0.0317
     87 H         -2.643294   3.896932   0.677805 H        1 UNL1     0.0317
     88 H         -6.267412   6.570438   -0.670825 H        1 UNL1     0.0429
     89 H         -4.682692   6.885558   -1.381879 H        1 UNL1     0.0429
     90 H         -6.945812   5.145853   -2.327683 H        1 UNL1     0.0308
     91 H         -4.687804   6.721074   -3.675545 H        1 UNL1     0.0233
     92 H         -5.816219   5.680338   -4.580557 H        1 UNL1     0.0233
     93 H         -6.409349   7.082557   -3.716507 H        1 UNL1     0.0233
     94 H         -5.193811   3.717551   -3.615869 H        1 UNL1     0.0233
     95 H         -4.125782   4.139046   -2.268284 H        1 UNL1     0.0233
     96 H         -5.647497   3.271788   -1.958063 H        1 UNL1     0.0233
     97 H         -5.643793   -2.236663   7.771158 H        1 UNL1     0.0280
     98 H         -4.85722   -1.372573   9.064154 H        1 UNL1     0.0280
     99 H         -6.602507   -1.121948   8.762674 H        1 UNL1     0.0280
     100 H         -7.287083   2.065686   8.292909 H        1 UNL1     0.2922
     101 H         1.799012   2.706873   4.473709 H        1 UNL1     0.0236
     102 H         1.474248   4.481335   4.364747 H        1 UNL1     0.0236
     103 H         2.314919   3.636863   3.101563 H        1 UNL1     0.0236
     104 H         2.118469   2.820871   0.411723 H        1 UNL1     0.2098
     105 H         0.685232   1.219487   -1.026692 H        1 UNL1     0.0234
     106 H         1.362018   -0.429143   -0.903906 H        1 UNL1     0.0234
     107 H         0.0   -0.0   0.0 H        1 UNL1     0.0234
     108 H         1.658884   0.138309   3.221992 H        1 UNL1     0.2098
     109 H         -0.94376   -0.74419   1.262236 H        1 UNL1     0.0234
     110 H         -1.217634   -1.294356   -0.421543 H        1 UNL1     0.0234
     111 H         -2.154241   -1.949278   0.875642 H        1 UNL1     0.0234
     112 H         4.139017   -2.73843   -3.043986 H        1 UNL1     0.0342
     113 H         3.773306   -3.521843   -1.465773 H        1 UNL1     0.0342
     114 H         2.926076   -4.025863   -2.930743 H        1 UNL1     0.0342
     115 H         4.465448   -2.978682   1.614667 H        1 UNL1     0.0234
     116 H         3.064967   -3.332099   2.631787 H        1 UNL1     0.0234
     117 H         3.364863   -4.166051   1.092881 H        1 UNL1     0.0234
     118 H         -3.094378   -3.124077   4.079237 H        1 UNL1     0.0309
     119 H         -4.593817   -2.307522   4.620515 H        1 UNL1     0.0309
     120 H         -3.658615   -1.710004   3.267545 H        1 UNL1     0.0309
     121 H         2.08402   -4.089283   4.629311 H        1 UNL1     0.0524
     122 H         0.321427   -4.228075   4.658573 H        1 UNL1     0.0524
     123 H         1.280638   -5.384919   3.701824 H        1 UNL1     0.0524
@<TRIPOS>BOND
     1     1     2    1
     2     1    42    1
     3     2     3    2
     4     3     4    1
     5     4     5    2
     6     5     7    1
     7     6    75    1
     8     6    76    1
     9     6    77    1
    10     7     9   am
    11     9    10    1
    12    10    11    2
    13    10    43    1
    14    11    14    1
    15    11    15    1
    16    12    13   ar
    17    12    27   ar
    18    12    43    1
    19    13    14    1
    20    13    30   ar
    21    14    17    2
    22    15    16    1
    23    16    17    1
    24    16    18    1
    25    16    22    1
    26    18    19    1
    27    19    20    1
    28    20    21    1
    29    21    22    1
    30    23    24    1
    31    23    88    1
    32    23    89    1
    33    24    25    1
    34    24    26    1
    35    24    90    1
    36    25    91    1
    37    25    92    1
    38    25    93    1
    39    26    94    1
    40    26    95    1
    41    26    96    1
    42    27    28   ar
    43    28    29   ar
    44    29    30   ar
    45    29    31    1
    46    30    33    1
    47    31    32    1
    48    32    33    1
    49    32    35    1
    50    34    97    1
    51    34    98    1
    52    34    99    1
    53    35    61    1
    54    36    37    1
    55    36    60    1
    56    37    38    1
    57    38    39    1
    58    39    40    1
    59    40    41    1
    60    41    42    1
    61    45   100    1
    62    47   101    1
    63    47   102    1
    64    47   103    1
    65    48   104    1
    66    49   105    1
    67    49   106    1
    68    49   107    1
    69    50   108    1
    70    51    59    1
    71    52   109    1
    72    52   110    1
    73    52   111    1
    74    53    54    1
    75    54    55    2
    76    54    56    1
    77    56   112    1
    78    56   113    1
    79    56   114    1
    80    57   115    1
    81    57   116    1
    82    57   117    1
    83    58   118    1
    84    58   119    1
    85    58   120    1
    86    59   121    1
    87    59   122    1
    88    59   123    1
    89    60    61    2
    90     1    47    1
    91     1    62    1
    92     2    63    1
    93     3    64    1
    94     4    65    1
    95     5     6    1
    96     7     8    2
    97     9    78    1
    98    15    79    1
    99    18    80    1
   100    18    81    1
   101    19    82    1
   102    19    83    1
   103    20    23    1
   104    21    84    1
   105    21    85    1
   106    22    86    1
   107    22    87    1
   108    27    45    1
   109    28    34    1
   110    32    58    1
   111    33    46    2
   112    36    51    1
   113    36    66    1
   114    37    52    1
   115    37    67    1
   116    38    53    1
   117    38    68    1
   118    42    48    1
   119    42    72    1
   120    43    44    2
   121    60    73    1
   122    61    74    1
   123    39    69    1
   124    39    57    1
   125    40    70    1
   126    40    50    1
   127    41    71    1
   128    41    49    1
