@<TRIPOS>MOLECULE
*****
 123 128 0 0 0
SMALL
GASTEIGER

@<TRIPOS>ATOM
     1 C         -2.046555   2.138871   2.97364 C.3        1 UNL1     0.0009
     2 C         -3.395153   3.388409   2.734947 C.2        1 UNL1     -0.0787
     3 C         -3.839162   4.765949   2.699102 C.2        1 UNL1     -0.0649
     4 C         -5.36266   5.357009   2.25643 C.2        1 UNL1     -0.0542
     5 C         -6.084302   6.494962   1.818967 C.2        1 UNL1     0.0115
     6 C         -5.99667   8.030239   1.598583 C.3        1 UNL1     -0.0348
     7 C         -7.527118   6.288511   1.146173 C.2        1 UNL1     0.2441
     8 O         -8.575129   6.491846   1.743545 O.2        1 UNL1     -0.2702
     9 N         -7.506877   6.111631   -0.248264 N.am        1 UNL1     -0.2772
     10 C         -7.35135   4.780787   -0.561292 C.2        1 UNL1     0.1049
     11 C         -6.113238   4.321232   -0.5508 C.2        1 UNL1     0.0801
     12 C         -8.242308   2.502718   -0.03791 C.ar        1 UNL1     0.0753
     13 C         -6.883057   2.103955   0.167112 C.ar        1 UNL1     0.0305
     14 C         -5.766882   2.967647   -0.211359 C.2        1 UNL1     0.0924
     15 N         -4.946047   4.984779   -0.488365 N.pl3        1 UNL1     -0.3170
     16 C         -3.887035   4.030269   -0.682422 C.3        1 UNL1     0.1275
     17 N         -4.459464   2.724804   -0.18663 N.2        1 UNL1     -0.2557
     18 C         -3.697279   3.865139   -2.187223 C.3        1 UNL1     0.0016
     19 C         -3.429777   5.232149   -2.796579 C.3        1 UNL1     0.0026
     20 N         -2.238254   5.795458   -2.176914 N.3        1 UNL1     -0.3018
     21 C         -2.301958   5.935665   -0.720668 C.3        1 UNL1     0.0026
     22 C         -2.56674   4.550083   -0.129103 C.3        1 UNL1     0.0016
     23 C         -1.725826   6.950487   -2.886822 C.3        1 UNL1     0.0012
     24 C         -1.953127   8.23071   -2.067603 C.3        1 UNL1     -0.0339
     25 C         -2.300911   9.423561   -2.973257 C.3        1 UNL1     -0.0615
     26 C         -3.025514   7.994089   -1.018424 C.3        1 UNL1     -0.0615
     27 C         -9.296765   1.627777   0.212527 C.ar        1 UNL1     0.1347
     28 C         -9.115098   0.321604   0.63081 C.ar        1 UNL1     0.0342
     29 C         -7.771005   -0.033369   0.87283 C.ar        1 UNL1     0.1435
     30 C         -6.706773   0.843989   0.660999 C.ar        1 UNL1     0.0774
     31 O         -7.421184   -1.301926   1.178436 O.3        1 UNL1     -0.4436
     32 C         -6.018084   -1.372355   0.883101 C.3        1 UNL1     0.3143
     33 C         -5.525894   0.059031   0.954485 C.2        1 UNL1     0.2504
     34 C         -10.173926   -0.744606   0.677481 C.3        1 UNL1     -0.0327
     35 O         -5.391639   -2.083031   1.958164 O.2        1 UNL1     -0.4528
     36 C         -2.394945   -3.845195   0.434127 C.3        1 UNL1     0.0854
     37 C         -1.175046   -3.233164   -0.356308 C.3        1 UNL1     0.0236
     38 C         0.268378   -3.602239   0.237035 C.3        1 UNL1     0.1131
     39 C         0.56454   -3.382476   1.775301 C.3        1 UNL1     0.0200
     40 C         0.065022   -1.987241   2.540963 C.3        1 UNL1     0.0661
     41 C         0.329664   -0.403808   1.992953 C.3        1 UNL1     0.0091
     42 C         -0.695302   1.106374   2.177885 C.3        1 UNL1     0.0661
     43 C         -8.488004   3.849196   -0.611399 C.2        1 UNL1     0.2131
     44 O         -9.515584   4.15836   -1.186929 O.2        1 UNL1     -0.2851
     45 O         -10.591595   2.109368   0.031085 O.3        1 UNL1     -0.5056
     46 O         -4.414522   0.461524   1.2166 O.2        1 UNL1     -0.2836
     47 C         -1.708781   1.991398   4.481666 C.3        1 UNL1     -0.0566
     48 O         0.438437   1.961383   2.605331 O.3        1 UNL1     -0.3909
     49 C         0.782579   -0.455801   0.55085 C.3        1 UNL1     -0.0577
     50 O         -1.261408   -2.12066   3.010544 O.3        1 UNL1     -0.3910
     51 O         -2.081829   -4.487022   1.64963 O.3        1 UNL1     -0.3753
     52 C         -1.502479   -1.81311   -0.923039 C.3        1 UNL1     -0.0564
     53 O         1.397815   -3.314656   -0.708478 O.3        1 UNL1     -0.4608
     54 C         2.714431   -3.17452   -0.355187 C.2        1 UNL1     0.3042
     55 O         3.350014   -2.127082   -0.24229 O.2        1 UNL1     -0.2512
     56 C         3.390855   -4.475175   -0.027374 C.3        1 UNL1     0.0332
     57 C         0.306616   -4.77439   2.519764 C.3        1 UNL1     -0.0567
     58 C         -5.902825   -1.867276   -0.57748 C.3        1 UNL1     0.0210
     59 C         -2.970218   -4.195713   2.727485 C.3        1 UNL1     0.0372
     60 C         -3.498711   -2.890064   0.724961 C.2        1 UNL1     -0.0208
     61 C         -4.192699   -2.686218   1.845484 C.2        1 UNL1     0.0882
     62 H         -2.765399   1.345778   2.73494 H        1 UNL1     0.0365
     63 H         -4.25729   2.733117   2.594299 H        1 UNL1     0.0576
     64 H         -3.138013   5.596381   2.808098 H        1 UNL1     0.0615
     65 H         -5.996919   4.466397   2.253433 H        1 UNL1     0.0622
     66 H         -2.817823   -4.595492   -0.248716 H        1 UNL1     0.0645
     67 H         -1.168452   -3.787952   -1.310628 H        1 UNL1     0.0362
     68 H         0.251554   -4.69375   0.096172 H        1 UNL1     0.0741
     69 H         1.635928   -3.364148   1.924301 H        1 UNL1     0.0359
     70 H         0.688157   -2.037406   3.454334 H        1 UNL1     0.0600
     71 H         1.281756   -0.176435   2.511392 H        1 UNL1     0.0348
     72 H         -1.040657   0.408509   2.954436 H        1 UNL1     0.0602
     73 H         -3.793263   -2.411874   -0.17605 H        1 UNL1     0.0628
     74 H         -3.922054   -3.091925   2.820876 H        1 UNL1     0.1022
     75 H         -5.548415   8.52946   2.491265 H        1 UNL1     0.0279
     76 H         -5.350267   8.368423   0.791822 H        1 UNL1     0.0279
     77 H         -6.985077   8.510711   1.555005 H        1 UNL1     0.0279
     78 H         -6.715785   6.614199   -0.645348 H        1 UNL1     0.1553
     79 H         -4.846802   5.959004   -0.707383 H        1 UNL1     0.1484
     80 H         -2.864042   3.175611   -2.368971 H        1 UNL1     0.0317
     81 H         -4.583451   3.413776   -2.646161 H        1 UNL1     0.0317
     82 H         -4.291997   5.905273   -2.680846 H        1 UNL1     0.0428
     83 H         -3.299317   5.091531   -3.870011 H        1 UNL1     0.0428
     84 H         -1.366871   6.285605   -0.272375 H        1 UNL1     0.0428
     85 H         -3.042416   6.687483   -0.414387 H        1 UNL1     0.0428
     86 H         -2.474606   4.667032   0.934768 H        1 UNL1     0.0317
     87 H         -1.743302   3.87106   -0.382037 H        1 UNL1     0.0317
     88 H         -0.645795   6.813088   -3.028058 H        1 UNL1     0.0429
     89 H         -2.172623   7.035076   -3.885818 H        1 UNL1     0.0429
     90 H         -1.038208   8.468982   -1.512299 H        1 UNL1     0.0308
     91 H         -3.054946   9.151113   -3.717774 H        1 UNL1     0.0233
     92 H         -2.66947   10.264055   -2.380515 H        1 UNL1     0.0233
     93 H         -1.429669   9.79711   -3.52483 H        1 UNL1     0.0233
     94 H         -3.465104   8.947482   -0.705955 H        1 UNL1     0.0233
     95 H         -3.824928   7.374505   -1.434376 H        1 UNL1     0.0233
     96 H         -2.616395   7.496125   -0.134896 H        1 UNL1     0.0233
     97 H         -9.914412   -1.603604   0.065922 H        1 UNL1     0.0280
     98 H         -10.32526   -1.133375   1.692967 H        1 UNL1     0.0280
     99 H         -11.12803   -0.333596   0.308899 H        1 UNL1     0.0280
     100 H         -10.762897   2.937283   0.444407 H        1 UNL1     0.2922
     101 H         -2.131142   1.062331   4.863898 H        1 UNL1     0.0236
     102 H         -2.012135   2.853216   5.075155 H        1 UNL1     0.0236
     103 H         -0.623816   1.898099   4.655848 H        1 UNL1     0.0236
     104 H         0.505324   1.897897   3.578196 H        1 UNL1     0.2098
     105 H         1.697391   0.095099   0.347286 H        1 UNL1     0.0234
     106 H         0.84368   -1.458754   0.128619 H        1 UNL1     0.0234
     107 H         0.0   0.0   -0.0 H        1 UNL1     0.0234
     108 H         -1.459201   -3.076063   3.05356 H        1 UNL1     0.2098
     109 H         -1.951546   -1.858508   -1.925031 H        1 UNL1     0.0234
     110 H         -2.144267   -1.222681   -0.260283 H        1 UNL1     0.0234
     111 H         -0.596726   -1.201579   -1.030682 H        1 UNL1     0.0234
     112 H         4.428987   -4.291285   0.265561 H        1 UNL1     0.0342
     113 H         2.859522   -5.029987   0.744451 H        1 UNL1     0.0342
     114 H         3.401645   -5.094541   -0.934806 H        1 UNL1     0.0342
     115 H         0.859419   -5.598432   2.04801 H        1 UNL1     0.0234
     116 H         0.569851   -4.766584   3.579337 H        1 UNL1     0.0234
     117 H         -0.732298   -5.135598   2.429605 H        1 UNL1     0.0234
     118 H         -5.578418   -2.921126   -0.633755 H        1 UNL1     0.0309
     119 H         -6.830341   -1.747201   -1.146248 H        1 UNL1     0.0309
     120 H         -5.129791   -1.334566   -1.142055 H        1 UNL1     0.0309
     121 H         -2.418288   -4.335384   3.656582 H        1 UNL1     0.0524
     122 H         -3.325725   -3.152065   2.706229 H        1 UNL1     0.0524
     123 H         -3.828333   -4.861174   2.697601 H        1 UNL1     0.0524
@<TRIPOS>BOND
     1     1     2    1
     2     1    42    1
     3     2     3    2
     4     3     4    1
     5     4     5    2
     6     5     7    1
     7     6    75    1
     8     6    76    1
     9     6    77    1
    10     7     9   am
    11     9    10    1
    12    10    11    2
    13    10    43    1
    14    11    14    1
    15    11    15    1
    16    12    13   ar
    17    12    27   ar
    18    12    43    1
    19    13    14    1
    20    13    30   ar
    21    14    17    2
    22    15    16    1
    23    16    17    1
    24    16    18    1
    25    16    22    1
    26    18    19    1
    27    19    20    1
    28    20    21    1
    29    21    22    1
    30    23    24    1
    31    23    88    1
    32    23    89    1
    33    24    25    1
    34    24    26    1
    35    24    90    1
    36    25    91    1
    37    25    92    1
    38    25    93    1
    39    26    94    1
    40    26    95    1
    41    26    96    1
    42    27    28   ar
    43    28    29   ar
    44    29    30   ar
    45    29    31    1
    46    30    33    1
    47    31    32    1
    48    32    33    1
    49    32    35    1
    50    34    97    1
    51    34    98    1
    52    34    99    1
    53    35    61    1
    54    36    37    1
    55    36    60    1
    56    37    38    1
    57    38    39    1
    58    39    40    1
    59    40    41    1
    60    41    42    1
    61    45   100    1
    62    47   101    1
    63    47   102    1
    64    47   103    1
    65    48   104    1
    66    49   105    1
    67    49   106    1
    68    49   107    1
    69    50   108    1
    70    51    59    1
    71    52   109    1
    72    52   110    1
    73    52   111    1
    74    53    54    1
    75    54    55    2
    76    54    56    1
    77    56   112    1
    78    56   113    1
    79    56   114    1
    80    57   115    1
    81    57   116    1
    82    57   117    1
    83    58   118    1
    84    58   119    1
    85    58   120    1
    86    59   121    1
    87    59   122    1
    88    59   123    1
    89    60    61    2
    90     1    47    1
    91     1    62    1
    92     2    63    1
    93     3    64    1
    94     4    65    1
    95     5     6    1
    96     7     8    2
    97     9    78    1
    98    15    79    1
    99    18    80    1
   100    18    81    1
   101    19    82    1
   102    19    83    1
   103    20    23    1
   104    21    84    1
   105    21    85    1
   106    22    86    1
   107    22    87    1
   108    27    45    1
   109    28    34    1
   110    32    58    1
   111    33    46    2
   112    36    51    1
   113    36    66    1
   114    37    52    1
   115    37    67    1
   116    38    53    1
   117    38    68    1
   118    42    48    1
   119    42    72    1
   120    43    44    2
   121    60    73    1
   122    61    74    1
   123    39    69    1
   124    39    57    1
   125    40    70    1
   126    40    50    1
   127    41    71    1
   128    41    49    1
