@<TRIPOS>MOLECULE
*****
 123 128 0 0 0
SMALL
GASTEIGER

@<TRIPOS>ATOM
     1 C         -2.808956   3.201255   1.968 C.3        1 UNL1     0.0009
     2 C         -2.828178   4.238182   3.504702 C.2        1 UNL1     -0.0787
     3 C         -3.08321   4.377223   4.923036 C.2        1 UNL1     -0.0649
     4 C         -2.760166   5.712577   5.912394 C.2        1 UNL1     -0.0542
     5 C         -2.568457   6.150033   7.24617 C.2        1 UNL1     0.0115
     6 C         -2.683066   5.726316   8.736355 C.3        1 UNL1     -0.0348
     7 C         -1.850731   7.562444   7.504927 C.2        1 UNL1     0.2441
     8 O         -2.465861   8.576275   7.805402 O.2        1 UNL1     -0.2702
     9 N         -0.451093   7.49956   7.619874 N.am        1 UNL1     -0.2772
     10 C         0.137961   7.611875   6.381438 C.2        1 UNL1     0.1049
     11 C         0.212106   6.50206   5.669375 C.2        1 UNL1     0.0801
     12 C         0.124852   8.994277   4.296702 C.ar        1 UNL1     0.0753
     13 C         -0.005402   7.764646   3.575836 C.ar        1 UNL1     0.0305
     14 C         0.166585   6.470763   4.232599 C.2        1 UNL1     0.0924
     15 N         -0.004256   5.226336   6.033027 N.pl3        1 UNL1     -0.3170
     16 C         0.377731   4.384346   4.930578 C.3        1 UNL1     0.1275
     17 N         0.179616   5.248215   3.70902 N.2        1 UNL1     -0.2557
     18 C         1.880723   4.147218   5.042325 C.3        1 UNL1     0.0016
     19 C         2.180034   3.561207   6.412942 C.3        1 UNL1     0.0026
     20 N         1.44061   2.315219   6.560573 N.3        1 UNL1     -0.3018
     21 C         -0.011049   2.431854   6.407428 C.3        1 UNL1     0.0026
     22 C         -0.289036   3.018118   5.022181 C.3        1 UNL1     0.0016
     23 C         1.880763   1.529396   7.696086 C.3        1 UNL1     0.0012
     24 C         1.761741   0.027963   7.390651 C.3        1 UNL1     -0.0339
     25 C         2.503825   -0.819382   8.437253 C.3        1 UNL1     -0.0615
     26 C         0.299154   -0.367854   7.286009 C.3        1 UNL1     -0.0615
     27 C         0.079627   10.222931   3.642116 C.ar        1 UNL1     0.1347
     28 C         -0.051188   10.346805   2.270404 C.ar        1 UNL1     0.0342
     29 C         -0.226786   9.124817   1.586975 C.ar        1 UNL1     0.1435
     30 C         -0.219898   7.888346   2.233746 C.ar        1 UNL1     0.0774
     31 O         -0.257512   9.070156   0.237503 O.3        1 UNL1     -0.4436
     32 C         0.030114   7.699205   -0.076562 C.3        1 UNL1     0.3143
     33 C         -0.351807   6.919717   1.165512 C.2        1 UNL1     0.2504
     34 C         0.143633   11.60849   1.476493 C.3        1 UNL1     -0.0327
     35 O         -0.874798   7.300906   -1.113742 O.2        1 UNL1     -0.4528
     36 C         0.957231   4.662912   -3.136797 C.3        1 UNL1     0.0854
     37 C         1.584323   3.297371   -2.657658 C.3        1 UNL1     0.0236
     38 C         1.067473   2.001785   -3.448903 C.3        1 UNL1     0.1131
     39 C         -0.485421   1.755226   -3.622106 C.3        1 UNL1     0.0200
     40 C         -1.526463   1.991018   -2.340282 C.3        1 UNL1     0.0661
     41 C         -1.333395   1.365463   -0.775349 C.3        1 UNL1     0.0091
     42 C         -1.825886   2.055907   0.851348 C.3        1 UNL1     0.0661
     43 C         0.399353   8.915347   5.752957 C.2        1 UNL1     0.2131
     44 O         0.906919   9.818985   6.392138 O.2        1 UNL1     -0.2851
     45 O         0.168377   11.373521   4.422952 O.3        1 UNL1     -0.5056
     46 O         -0.706647   5.765338   1.251251 O.2        1 UNL1     -0.2836
     47 C         -4.25412   2.990208   1.44175 C.3        1 UNL1     -0.0566
     48 O         -2.439396   0.793335   1.329503 O.3        1 UNL1     -0.3909
     49 C         0.081136   0.851248   -0.626429 C.3        1 UNL1     -0.0577
     50 O         -1.941484   3.340465   -2.273407 O.3        1 UNL1     -0.3910
     51 O         -0.096047   4.563809   -4.068578 O.3        1 UNL1     -0.3753
     52 C         1.837389   3.282973   -1.114706 C.3        1 UNL1     -0.0564
     53 O         1.916559   0.784311   -3.22724 O.3        1 UNL1     -0.4608
     54 C         2.195863   -0.172299   -4.167888 C.2        1 UNL1     0.3042
     55 O         1.729603   -0.262228   -5.302944 O.2        1 UNL1     -0.2512
     56 C         3.235436   -1.163301   -3.727529 C.3        1 UNL1     0.0332
     57 C         -0.911469   2.344986   -5.04648 C.3        1 UNL1     -0.0567
     58 C         1.561405   7.607226   -0.272058 C.3        1 UNL1     0.0210
     59 C         -1.396199   4.801573   -3.531048 C.3        1 UNL1     0.0372
     60 C         0.481094   5.554028   -2.043925 C.2        1 UNL1     -0.0208
     61 C         -0.649138   6.252633   -1.92872 C.2        1 UNL1     0.0882
     62 H         -2.397769   4.056863   1.418844 H        1 UNL1     0.0365
     63 H         -2.540653   5.210036   3.098131 H        1 UNL1     0.0576
     64 H         -3.375509   3.523462   5.538471 H        1 UNL1     0.0615
     65 H         -2.559267   6.519971   5.203002 H        1 UNL1     0.0622
     66 H         1.789696   5.195032   -3.618352 H        1 UNL1     0.0645
     67 H         2.635193   3.353368   -2.990966 H        1 UNL1     0.0362
     68 H         1.439058   2.241455   -4.456873 H        1 UNL1     0.0741
     69 H         -0.647035   0.714758   -3.87053 H        1 UNL1     0.0359
     70 H         -2.414897   1.446567   -2.713537 H        1 UNL1     0.0600
     71 H         -1.899275   0.41842   -0.874581 H        1 UNL1     0.0348
     72 H         -2.430954   2.585675   0.101311 H        1 UNL1     0.0602
     73 H         1.262041   5.687899   -1.337209 H        1 UNL1     0.0628
     74 H         -1.51799   6.131019   -2.576442 H        1 UNL1     0.1022
     75 H         -1.702042   5.348528   9.113054 H        1 UNL1     0.0279
     76 H         -2.919545   6.514219   9.447941 H        1 UNL1     0.0279
     77 H         -3.324472   4.844396   8.879591 H        1 UNL1     0.0279
     78 H         -0.179883   6.598296   8.007489 H        1 UNL1     0.1553
     79 H         -0.00015   4.910313   6.985416 H        1 UNL1     0.1484
     80 H         2.196489   3.470019   4.239542 H        1 UNL1     0.0317
     81 H         2.435718   5.080879   4.901224 H        1 UNL1     0.0317
     82 H         1.93259   4.26634   7.22008 H        1 UNL1     0.0428
     83 H         3.257121   3.401673   6.471967 H        1 UNL1     0.0428
     84 H         -0.534475   1.471359   6.443287 H        1 UNL1     0.0428
     85 H         -0.462844   3.012536   7.22352 H        1 UNL1     0.0428
     86 H         -1.354239   2.964964   4.893712 H        1 UNL1     0.0317
     87 H         0.094119   2.344137   4.24627 H        1 UNL1     0.0317
     88 H         2.936149   1.764849   7.885864 H        1 UNL1     0.0429
     89 H         1.323863   1.79413   8.604135 H        1 UNL1     0.0429
     90 H         2.197881   -0.173768   6.405106 H        1 UNL1     0.0308
     91 H         3.535334   -1.016707   8.130409 H        1 UNL1     0.0233
     92 H         2.508087   -0.317796   9.407821 H        1 UNL1     0.0233
     93 H         2.028002   -1.794211   8.59892 H        1 UNL1     0.0233
     94 H         -0.017357   -0.370373   6.237367 H        1 UNL1     0.0233
     95 H         0.155614   -1.376341   7.683893 H        1 UNL1     0.0233
     96 H         -0.342107   0.324321   7.838864 H        1 UNL1     0.0233
     97 H         -0.79505   11.998509   1.094405 H        1 UNL1     0.0280
     98 H         0.580193   12.41442   2.080769 H        1 UNL1     0.0280
     99 H         0.80812   11.406918   0.620386 H        1 UNL1     0.0280
     100 H         0.142051   12.179215   3.937373 H        1 UNL1     0.2922
     101 H         -4.912037   3.752744   1.858092 H        1 UNL1     0.0236
     102 H         -4.631776   1.983592   1.618058 H        1 UNL1     0.0236
     103 H         -4.321497   3.128363   0.349703 H        1 UNL1     0.0236
     104 H         -1.919732   0.05374   0.958127 H        1 UNL1     0.2098
     105 H         0.544774   0.535973   -1.5578 H        1 UNL1     0.0234
     106 H         0.750434   1.512401   -0.076116 H        1 UNL1     0.0234
     107 H         0.0   0.0   0.0 H        1 UNL1     0.0234
     108 H         -2.880391   3.342235   -2.004672 H        1 UNL1     0.2098
     109 H         1.814753   4.292058   -0.680026 H        1 UNL1     0.0234
     110 H         1.142715   2.633985   -0.570661 H        1 UNL1     0.0234
     111 H         2.827937   2.876426   -0.870815 H        1 UNL1     0.0234
     112 H         3.371434   -1.927498   -4.498796 H        1 UNL1     0.0342
     113 H         4.181449   -0.682838   -3.482462 H        1 UNL1     0.0342
     114 H         2.870581   -1.662579   -2.819362 H        1 UNL1     0.0342
     115 H         -1.914262   2.008949   -5.344263 H        1 UNL1     0.0234
     116 H         -0.90244   3.43563   -5.096104 H        1 UNL1     0.0234
     117 H         -0.301207   1.960993   -5.881988 H        1 UNL1     0.0234
     118 H         1.8458   6.766163   -0.928365 H        1 UNL1     0.0309
     119 H         2.000914   8.530612   -0.662433 H        1 UNL1     0.0309
     120 H         2.092029   7.389816   0.661364 H        1 UNL1     0.0309
     121 H         -1.948657   3.863482   -3.57722 H        1 UNL1     0.0524
     122 H         -1.361173   5.114533   -2.474229 H        1 UNL1     0.0524
     123 H         -1.907532   5.566523   -4.10853 H        1 UNL1     0.0524
@<TRIPOS>BOND
     1     1     2    1
     2     1    42    1
     3     2     3    2
     4     3     4    1
     5     4     5    2
     6     5     7    1
     7     6    75    1
     8     6    76    1
     9     6    77    1
    10     7     9   am
    11     9    10    1
    12    10    11    2
    13    10    43    1
    14    11    14    1
    15    11    15    1
    16    12    13   ar
    17    12    27   ar
    18    12    43    1
    19    13    14    1
    20    13    30   ar
    21    14    17    2
    22    15    16    1
    23    16    17    1
    24    16    18    1
    25    16    22    1
    26    18    19    1
    27    19    20    1
    28    20    21    1
    29    21    22    1
    30    23    24    1
    31    23    88    1
    32    23    89    1
    33    24    25    1
    34    24    26    1
    35    24    90    1
    36    25    91    1
    37    25    92    1
    38    25    93    1
    39    26    94    1
    40    26    95    1
    41    26    96    1
    42    27    28   ar
    43    28    29   ar
    44    29    30   ar
    45    29    31    1
    46    30    33    1
    47    31    32    1
    48    32    33    1
    49    32    35    1
    50    34    97    1
    51    34    98    1
    52    34    99    1
    53    35    61    1
    54    36    37    1
    55    36    60    1
    56    37    38    1
    57    38    39    1
    58    39    40    1
    59    40    41    1
    60    41    42    1
    61    45   100    1
    62    47   101    1
    63    47   102    1
    64    47   103    1
    65    48   104    1
    66    49   105    1
    67    49   106    1
    68    49   107    1
    69    50   108    1
    70    51    59    1
    71    52   109    1
    72    52   110    1
    73    52   111    1
    74    53    54    1
    75    54    55    2
    76    54    56    1
    77    56   112    1
    78    56   113    1
    79    56   114    1
    80    57   115    1
    81    57   116    1
    82    57   117    1
    83    58   118    1
    84    58   119    1
    85    58   120    1
    86    59   121    1
    87    59   122    1
    88    59   123    1
    89    60    61    2
    90     1    47    1
    91     1    62    1
    92     2    63    1
    93     3    64    1
    94     4    65    1
    95     5     6    1
    96     7     8    2
    97     9    78    1
    98    15    79    1
    99    18    80    1
   100    18    81    1
   101    19    82    1
   102    19    83    1
   103    20    23    1
   104    21    84    1
   105    21    85    1
   106    22    86    1
   107    22    87    1
   108    27    45    1
   109    28    34    1
   110    32    58    1
   111    33    46    2
   112    36    51    1
   113    36    66    1
   114    37    52    1
   115    37    67    1
   116    38    53    1
   117    38    68    1
   118    42    48    1
   119    42    72    1
   120    43    44    2
   121    60    73    1
   122    61    74    1
   123    39    69    1
   124    39    57    1
   125    40    70    1
   126    40    50    1
   127    41    71    1
   128    41    49    1
