@<TRIPOS>MOLECULE
*****
 123 128 0 0 0
SMALL
GASTEIGER

@<TRIPOS>ATOM
     1 C         3.125931   3.130179   -0.173996 C.3        1 UNL1     0.0009
     2 C         3.565268   4.558926   0.922681 C.2        1 UNL1     -0.0787
     3 C         3.351611   5.925   1.351912 C.2        1 UNL1     -0.0649
     4 C         4.084897   6.736426   2.644288 C.2        1 UNL1     -0.0542
     5 C         3.983182   7.834677   3.533432 C.2        1 UNL1     0.0115
     6 C         3.203768   9.146123   3.826599 C.3        1 UNL1     -0.0348
     7 C         4.853613   7.825435   4.882229 C.2        1 UNL1     0.2441
     8 O         5.881981   8.474555   5.014997 O.2        1 UNL1     -0.2702
     9 N         4.220648   7.230763   5.987612 N.am        1 UNL1     -0.2772
     10 C         4.468241   5.877462   6.012033 C.2        1 UNL1     0.1049
     11 C         3.692162   5.129904   5.248437 C.2        1 UNL1     0.0801
     12 C         6.312494   4.19516   5.85102 C.ar        1 UNL1     0.0753
     13 C         5.514249   3.530415   4.866374 C.ar        1 UNL1     0.0305
     14 C         4.121771   3.904932   4.630168 C.2        1 UNL1     0.0924
     15 N         2.55577   5.443181   4.602683 N.pl3        1 UNL1     -0.3170
     16 C         2.012415   4.228626   4.055075 C.3        1 UNL1     0.1275
     17 N         3.21378   3.341179   3.838549 N.2        1 UNL1     -0.2557
     18 C         1.188819   3.565523   5.154933 C.3        1 UNL1     0.0016
     19 C         0.144212   4.555875   5.644409 C.3        1 UNL1     0.0026
     20 N         -0.697313   4.941987   4.520229 N.3        1 UNL1     -0.3018
     21 C         0.01425   5.533734   3.385379 C.3        1 UNL1     0.0026
     22 C         1.055274   4.520232   2.906862 C.3        1 UNL1     0.0016
     23 C         -1.898447   5.642381   4.929337 C.3        1 UNL1     0.0012
     24 C         -1.611168   7.140483   5.116198 C.3        1 UNL1     -0.0339
     25 C         -0.136052   7.469714   4.833895 C.3        1 UNL1     -0.0615
     26 C         -2.544186   7.962419   4.244028 C.3        1 UNL1     -0.0615
     27 C         7.598398   3.754599   6.155115 C.ar        1 UNL1     0.1347
     28 C         8.176137   2.641145   5.5716 C.ar        1 UNL1     0.0342
     29 C         7.390692   2.031801   4.570131 C.ar        1 UNL1     0.1435
     30 C         6.115257   2.483798   4.229273 C.ar        1 UNL1     0.0774
     31 O         7.767561   0.873199   3.986508 O.3        1 UNL1     -0.4436
     32 C         6.559937   0.3432   3.419395 C.3        1 UNL1     0.3143
     33 C         5.650763   1.541082   3.233132 C.2        1 UNL1     0.2504
     34 C         9.440193   1.964534   6.023772 C.3        1 UNL1     -0.0327
     35 O         6.881814   -0.143733   2.110753 O.2        1 UNL1     -0.4528
     36 C         4.495559   -3.021976   1.455319 C.3        1 UNL1     0.0854
     37 C         2.918456   -3.031428   1.468685 C.3        1 UNL1     0.0236
     38 C         2.234403   -3.572454   0.122912 C.3        1 UNL1     0.1131
     39 C         2.675598   -2.979078   -1.275488 C.3        1 UNL1     0.0200
     40 C         2.892813   -1.336174   -1.465548 C.3        1 UNL1     0.0661
     41 C         1.795661   -0.128542   -1.001338 C.3        1 UNL1     0.0091
     42 C         2.089896   1.581715   -0.406487 C.3        1 UNL1     0.0661
     43 C         5.692231   5.314946   6.601761 C.2        1 UNL1     0.2131
     44 O         6.085578   5.695543   7.689493 O.2        1 UNL1     -0.2851
     45 O         8.325695   4.485019   7.092646 O.3        1 UNL1     -0.5056
     46 O         4.75856   1.692053   2.428746 O.2        1 UNL1     -0.2836
     47 C         3.664105   3.367688   -1.610637 C.3        1 UNL1     -0.0566
     48 O         1.08406   2.190786   -1.310061 O.3        1 UNL1     -0.3909
     49 C         0.754112   -0.739413   -0.090565 C.3        1 UNL1     -0.0577
     50 O         4.206733   -0.959443   -1.105812 O.3        1 UNL1     -0.3910
     51 O         5.102938   -3.319181   0.218311 O.3        1 UNL1     -0.3753
     52 C         2.336121   -1.820507   2.268377 C.3        1 UNL1     -0.0564
     53 O         0.778589   -3.901668   0.279597 O.3        1 UNL1     -0.4608
     54 C         -0.093312   -3.267957   1.125841 C.2        1 UNL1     0.3042
     55 O         -0.120896   -3.331271   2.354282 O.2        1 UNL1     -0.2512
     56 C         -1.066295   -2.365714   0.421585 C.3        1 UNL1     0.0332
     57 C         3.789078   -3.953302   -1.883128 C.3        1 UNL1     -0.0567
     58 C         5.945472   -0.587687   4.490567 C.3        1 UNL1     0.0210
     59 C         4.903858   -2.337973   -0.798283 C.3        1 UNL1     0.0372
     60 C         5.121091   -1.765207   1.949691 C.2        1 UNL1     -0.0208
     61 C         6.131902   -1.049804   1.454511 C.2        1 UNL1     0.0882
     62 H         3.878139   2.524647   0.345836 H        1 UNL1     0.0365
     63 H         4.422956   4.147653   1.459054 H        1 UNL1     0.0576
     64 H         2.534613   6.529591   0.951796 H        1 UNL1     0.0615
     65 H         4.925767   6.091491   2.913507 H        1 UNL1     0.0622
     66 H         4.782357   -3.803753   2.172688 H        1 UNL1     0.0645
     67 H         2.661211   -3.832681   2.183093 H        1 UNL1     0.0362
     68 H         2.606679   -4.608248   0.130901 H        1 UNL1     0.0741
     69 H         1.909591   -3.203043   -2.005886 H        1 UNL1     0.0359
     70 H         2.87829   -1.268443   -2.570203 H        1 UNL1     0.0600
     71 H         1.222166   -0.016347   -1.942334 H        1 UNL1     0.0348
     72 H         3.014572   1.274715   -0.916427 H        1 UNL1     0.0602
     73 H         4.718415   -1.525988   2.902516 H        1 UNL1     0.0628
     74 H         6.561315   -1.193607   0.462461 H        1 UNL1     0.1022
     75 H         2.144588   9.057575   3.484062 H        1 UNL1     0.0279
     76 H         3.089442   9.41886   4.873315 H        1 UNL1     0.0279
     77 H         3.55677   9.994721   3.22247 H        1 UNL1     0.0279
     78 H         3.213301   7.35659   5.913463 H        1 UNL1     0.1553
     79 H         1.988302   6.239425   4.828316 H        1 UNL1     0.1484
     80 H         0.722849   2.657157   4.754296 H        1 UNL1     0.0317
     81 H         1.828361   3.249342   5.985996 H        1 UNL1     0.0317
     82 H         0.606624   5.436757   6.113595 H        1 UNL1     0.0428
     83 H         -0.430523   4.063318   6.429341 H        1 UNL1     0.0428
     84 H         -0.628706   5.740925   2.52428 H        1 UNL1     0.0428
     85 H         0.445022   6.512394   3.638311 H        1 UNL1     0.0428
     86 H         1.461697   4.928731   2.000254 H        1 UNL1     0.0317
     87 H         0.557737   3.602249   2.570915 H        1 UNL1     0.0317
     88 H         -2.648313   5.526629   4.135866 H        1 UNL1     0.0429
     89 H         -2.324619   5.20418   5.841001 H        1 UNL1     0.0429
     90 H         -1.8405   7.423944   6.150253 H        1 UNL1     0.0308
     91 H         0.44161   7.5338   5.76088 H        1 UNL1     0.0233
     92 H         0.311025   6.713595   4.184268 H        1 UNL1     0.0233
     93 H         -0.013906   8.428724   4.316 H        1 UNL1     0.0233
     94 H         -2.703484   7.460392   3.283596 H        1 UNL1     0.0233
     95 H         -3.516104   8.069312   4.733836 H        1 UNL1     0.0233
     96 H         -2.135319   8.957973   4.049946 H        1 UNL1     0.0233
     97 H         10.04561   2.610501   6.652601 H        1 UNL1     0.0280
     98 H         9.237709   1.066625   6.622116 H        1 UNL1     0.0280
     99 H         10.039918   1.677413   5.144575 H        1 UNL1     0.0280
     100 H         9.205883   4.691157   6.831112 H        1 UNL1     0.2922
     101 H         3.707391   4.437299   -1.814884 H        1 UNL1     0.0236
     102 H         3.10334   2.828082   -2.373101 H        1 UNL1     0.0236
     103 H         4.703697   3.018362   -1.726456 H        1 UNL1     0.0236
     104 H         0.662206   1.466634   -1.812667 H        1 UNL1     0.2098
     105 H         0.290115   -1.641826   -0.480655 H        1 UNL1     0.0234
     106 H         1.083537   -0.897579   0.93627 H        1 UNL1     0.0234
     107 H         0.0   0.0   0.0 H        1 UNL1     0.0234
     108 H         4.190555   -0.718145   -0.159619 H        1 UNL1     0.2098
     109 H         1.769171   -2.140674   3.153687 H        1 UNL1     0.0234
     110 H         3.099803   -1.093679   2.565451 H        1 UNL1     0.0234
     111 H         1.633185   -1.234862   1.66105 H        1 UNL1     0.0234
     112 H         -1.194013   -2.692758   -0.614791 H        1 UNL1     0.0342
     113 H         -2.024597   -2.315466   0.936344 H        1 UNL1     0.0342
     114 H         -0.643734   -1.351646   0.405084 H        1 UNL1     0.0342
     115 H         3.345985   -4.862431   -2.312477 H        1 UNL1     0.0234
     116 H         4.407737   -3.492968   -2.656046 H        1 UNL1     0.0234
     117 H         4.460888   -4.383373   -1.120468 H        1 UNL1     0.0234
     118 H         5.844543   -0.08478   5.468271 H        1 UNL1     0.0309
     119 H         4.974102   -0.998093   4.196951 H        1 UNL1     0.0309
     120 H         6.583602   -1.449508   4.714534 H        1 UNL1     0.0309
     121 H         5.131972   -2.804675   -1.75615 H        1 UNL1     0.0524
     122 H         3.859789   -1.98564   -0.840952 H        1 UNL1     0.0524
     123 H         5.556922   -1.486057   -0.631432 H        1 UNL1     0.0524
@<TRIPOS>BOND
     1     1     2    1
     2     1    42    1
     3     2     3    2
     4     3     4    1
     5     4     5    2
     6     5     7    1
     7     6    75    1
     8     6    76    1
     9     6    77    1
    10     7     9   am
    11     9    10    1
    12    10    11    2
    13    10    43    1
    14    11    14    1
    15    11    15    1
    16    12    13   ar
    17    12    27   ar
    18    12    43    1
    19    13    14    1
    20    13    30   ar
    21    14    17    2
    22    15    16    1
    23    16    17    1
    24    16    18    1
    25    16    22    1
    26    18    19    1
    27    19    20    1
    28    20    21    1
    29    21    22    1
    30    23    24    1
    31    23    88    1
    32    23    89    1
    33    24    25    1
    34    24    26    1
    35    24    90    1
    36    25    91    1
    37    25    92    1
    38    25    93    1
    39    26    94    1
    40    26    95    1
    41    26    96    1
    42    27    28   ar
    43    28    29   ar
    44    29    30   ar
    45    29    31    1
    46    30    33    1
    47    31    32    1
    48    32    33    1
    49    32    35    1
    50    34    97    1
    51    34    98    1
    52    34    99    1
    53    35    61    1
    54    36    37    1
    55    36    60    1
    56    37    38    1
    57    38    39    1
    58    39    40    1
    59    40    41    1
    60    41    42    1
    61    45   100    1
    62    47   101    1
    63    47   102    1
    64    47   103    1
    65    48   104    1
    66    49   105    1
    67    49   106    1
    68    49   107    1
    69    50   108    1
    70    51    59    1
    71    52   109    1
    72    52   110    1
    73    52   111    1
    74    53    54    1
    75    54    55    2
    76    54    56    1
    77    56   112    1
    78    56   113    1
    79    56   114    1
    80    57   115    1
    81    57   116    1
    82    57   117    1
    83    58   118    1
    84    58   119    1
    85    58   120    1
    86    59   121    1
    87    59   122    1
    88    59   123    1
    89    60    61    2
    90     1    47    1
    91     1    62    1
    92     2    63    1
    93     3    64    1
    94     4    65    1
    95     5     6    1
    96     7     8    2
    97     9    78    1
    98    15    79    1
    99    18    80    1
   100    18    81    1
   101    19    82    1
   102    19    83    1
   103    20    23    1
   104    21    84    1
   105    21    85    1
   106    22    86    1
   107    22    87    1
   108    27    45    1
   109    28    34    1
   110    32    58    1
   111    33    46    2
   112    36    51    1
   113    36    66    1
   114    37    52    1
   115    37    67    1
   116    38    53    1
   117    38    68    1
   118    42    48    1
   119    42    72    1
   120    43    44    2
   121    60    73    1
   122    61    74    1
   123    39    69    1
   124    39    57    1
   125    40    70    1
   126    40    50    1
   127    41    71    1
   128    41    49    1
