@<TRIPOS>MOLECULE
*****
 123 128 0 0 0
SMALL
GASTEIGER

@<TRIPOS>ATOM
     1 C         5.116101   1.91489   0.397468 C.3        1 UNL1     0.0009
     2 C         6.556264   2.650157   -0.509368 C.2        1 UNL1     -0.0787
     3 C         7.855912   2.50535   -1.130649 C.2        1 UNL1     -0.0649
     4 C         8.725889   3.664495   -2.005795 C.2        1 UNL1     -0.0542
     5 C         9.762433   3.869882   -2.949442 C.2        1 UNL1     0.0115
     6 C         10.924345   3.174689   -3.711012 C.3        1 UNL1     -0.0348
     7 C         9.841886   5.27438   -3.722787 C.2        1 UNL1     0.2441
     8 O         10.638991   6.153485   -3.425595 O.2        1 UNL1     -0.2702
     9 N         9.116594   5.326145   -4.925877 N.am        1 UNL1     -0.2772
     10 C         7.818793   5.716462   -4.687787 C.2        1 UNL1     0.1049
     11 C         6.986411   4.765997   -4.303109 C.2        1 UNL1     0.0801
     12 C         6.45299   7.445325   -3.503327 C.ar        1 UNL1     0.0753
     13 C         5.706706   6.359586   -2.944005 C.ar        1 UNL1     0.0305
     14 C         5.866566   4.990805   -3.429735 C.2        1 UNL1     0.0924
     15 N         7.140461   3.430783   -4.303145 N.pl3        1 UNL1     -0.3170
     16 C         5.875954   2.842561   -3.949208 C.3        1 UNL1     0.1275
     17 N         5.195927   3.890054   -3.101833 N.2        1 UNL1     -0.2557
     18 C         5.053449   2.734251   -5.229621 C.3        1 UNL1     0.0016
     19 C         5.849932   1.941478   -6.253689 C.3        1 UNL1     0.0026
     20 N         6.139023   0.624317   -5.70365 N.3        1 UNL1     -0.3018
     21 C         6.874786   0.627088   -4.437548 C.3        1 UNL1     0.0026
     22 C         6.054505   1.424798   -3.422317 C.3        1 UNL1     0.0016
     23 C         6.627637   -0.308033   -6.699955 C.3        1 UNL1     0.0012
     24 C         5.502157   -0.697071   -7.671397 C.3        1 UNL1     -0.0339
     25 C         5.535578   0.164166   -8.944665 C.3        1 UNL1     -0.0615
     26 C         5.583538   -2.178495   -7.99627 C.3        1 UNL1     -0.0615
     27 C         6.208841   8.762009   -3.120114 C.ar        1 UNL1     0.1347
     28 C         5.221042   9.118767   -2.219543 C.ar        1 UNL1     0.0342
     29 C         4.532042   8.029397   -1.645337 C.ar        1 UNL1     0.1435
     30 C         4.790421   6.7028   -1.992617 C.ar        1 UNL1     0.0774
     31 O         3.468213   8.216967   -0.834108 O.3        1 UNL1     -0.4436
     32 C         2.77599   6.959378   -0.847173 C.3        1 UNL1     0.3143
     33 C         3.822473   5.935195   -1.237219 C.2        1 UNL1     0.2504
     34 C         4.735237   10.515977   -1.951404 C.3        1 UNL1     -0.0327
     35 O         2.392186   6.670353   0.502794 O.2        1 UNL1     -0.4528
     36 C         -0.799318   4.629538   0.263084 C.3        1 UNL1     0.0854
     37 C         -1.056213   3.266338   -0.487392 C.3        1 UNL1     0.0236
     38 C         -1.649695   2.091727   0.42902 C.3        1 UNL1     0.1131
     39 C         -0.945344   1.732918   1.799208 C.3        1 UNL1     0.0200
     40 C         0.716992   1.632188   1.893693 C.3        1 UNL1     0.0661
     41 C         1.720597   0.755392   0.844114 C.3        1 UNL1     0.0091
     42 C         3.433664   1.08989   0.27939 C.3        1 UNL1     0.0661
     43 C         7.434451   7.131039   -4.571137 C.2        1 UNL1     0.2131
     44 O         7.833186   7.948605   -5.380664 O.2        1 UNL1     -0.2851
     45 O         7.0105   9.755558   -3.678362 O.3        1 UNL1     -0.5056
     46 O         3.860204   4.755744   -0.966433 O.2        1 UNL1     -0.2836
     47 C         5.485756   1.665003   1.884375 C.3        1 UNL1     -0.0566
     48 O         3.909258   -0.291208   0.535311 O.3        1 UNL1     -0.3909
     49 C         0.922198   0.360661   -0.378277 C.3        1 UNL1     -0.0577
     50 O         1.281941   2.90122   2.15468 O.3        1 UNL1     -0.3910
     51 O         -0.953666   4.600103   1.664063 O.3        1 UNL1     -0.3753
     52 C         0.019406   2.997488   -1.589985 C.3        1 UNL1     -0.0564
     53 O         -2.208276   0.941288   -0.35635 O.3        1 UNL1     -0.4608
     54 C         -2.411545   -0.325674   0.12471 C.2        1 UNL1     0.3042
     55 O         -1.807924   -1.35025   -0.191079 O.2        1 UNL1     -0.2512
     56 C         -3.463456   -0.401186   1.194521 C.3        1 UNL1     0.0332
     57 C         -1.71093   2.526938   2.957477 C.3        1 UNL1     -0.0567
     58 C         1.72296   7.051413   -1.975971 C.3        1 UNL1     0.0210
     59 C         -1.340065   5.842029   2.250734 C.3        1 UNL1     0.0372
     60 C         0.521616   5.258556   -0.010101 C.2        1 UNL1     -0.0208
     61 C         1.403645   5.813255   0.822412 C.2        1 UNL1     0.0882
     62 H         4.617862   2.891089   0.358665 H        1 UNL1     0.0365
     63 H         6.265701   3.70251   -0.533776 H        1 UNL1     0.0576
     64 H         8.338829   1.530365   -1.227102 H        1 UNL1     0.0615
     65 H         8.211531   4.602327   -1.7791 H        1 UNL1     0.0622
     66 H         -1.551432   5.317235   -0.148551 H        1 UNL1     0.0645
     67 H         -1.912682   3.482108   -1.149558 H        1 UNL1     0.0362
     68 H         -2.613996   2.544193   0.706365 H        1 UNL1     0.0741
     69 H         -1.260531   0.743905   2.104035 H        1 UNL1     0.0359
     70 H         0.820716   1.081631   2.848255 H        1 UNL1     0.0600
     71 H         1.774831   -0.207884   1.388279 H        1 UNL1     0.0348
     72 H         3.293595   1.686099   1.192753 H        1 UNL1     0.0602
     73 H         0.660873   5.336627   -1.059749 H        1 UNL1     0.0628
     74 H         1.364144   5.728091   1.908886 H        1 UNL1     0.1022
     75 H         10.987965   2.096057   -3.428982 H        1 UNL1     0.0279
     76 H         10.835603   3.128786   -4.794103 H        1 UNL1     0.0279
     77 H         11.914539   3.538818   -3.400163 H        1 UNL1     0.0279
     78 H         9.08559   4.39985   -5.346701 H        1 UNL1     0.1553
     79 H         7.829461   2.949626   -4.851506 H        1 UNL1     0.1484
     80 H         4.098071   2.246801   -5.000686 H        1 UNL1     0.0317
     81 H         4.812123   3.726843   -5.624808 H        1 UNL1     0.0317
     82 H         6.775195   2.462029   -6.541484 H        1 UNL1     0.0428
     83 H         5.245908   1.877846   -7.159314 H        1 UNL1     0.0428
     84 H         7.009068   -0.369715   -4.006081 H        1 UNL1     0.0428
     85 H         7.899266   1.004624   -4.560934 H        1 UNL1     0.0428
     86 H         6.553503   1.293939   -2.480051 H        1 UNL1     0.0317
     87 H         5.082397   0.942095   -3.26389 H        1 UNL1     0.0317
     88 H         7.425027   0.187295   -7.269264 H        1 UNL1     0.0429
     89 H         7.070989   -1.196156   -6.2315 H        1 UNL1     0.0429
     90 H         4.534485   -0.551623   -7.176757 H        1 UNL1     0.0308
     91 H         6.498297   0.078717   -9.457474 H        1 UNL1     0.0233
     92 H         4.736857   -0.128654   -9.630165 H        1 UNL1     0.0233
     93 H         5.381479   1.22913   -8.732676 H        1 UNL1     0.0233
     94 H         4.910874   -2.420687   -8.82615 H        1 UNL1     0.0233
     95 H         6.601246   -2.439004   -8.300189 H        1 UNL1     0.0233
     96 H         5.304446   -2.79183   -7.134936 H        1 UNL1     0.0233
     97 H         3.925132   10.533978   -1.228468 H        1 UNL1     0.0280
     98 H         5.524205   11.155592   -1.534656 H        1 UNL1     0.0280
     99 H         4.371453   10.966573   -2.889338 H        1 UNL1     0.0280
     100 H         6.536097   10.45205   -4.097246 H        1 UNL1     0.2922
     101 H         4.619953   1.272926   2.417589 H        1 UNL1     0.0236
     102 H         5.905347   2.542579   2.375076 H        1 UNL1     0.0236
     103 H         6.258292   0.885627   1.993713 H        1 UNL1     0.0236
     104 H         4.309688   -0.304856   1.426625 H        1 UNL1     0.2098
     105 H         0.705125   1.181468   -1.057222 H        1 UNL1     0.0234
     106 H         1.323892   -0.489437   -0.929551 H        1 UNL1     0.0234
     107 H         0.0   -0.0   0.0 H        1 UNL1     0.0234
     108 H         1.086909   3.469491   1.384745 H        1 UNL1     0.2098
     109 H         1.036707   2.953092   -1.176658 H        1 UNL1     0.0234
     110 H         -0.179035   2.09175   -2.173083 H        1 UNL1     0.0234
     111 H         0.038339   3.798635   -2.340819 H        1 UNL1     0.0234
     112 H         -3.572143   -1.434647   1.53729 H        1 UNL1     0.0342
     113 H         -3.248831   0.266282   2.027747 H        1 UNL1     0.0342
     114 H         -4.421479   -0.089188   0.756328 H        1 UNL1     0.0342
     115 H         -2.770249   2.241465   3.016947 H        1 UNL1     0.0234
     116 H         -1.277826   2.390414   3.950367 H        1 UNL1     0.0234
     117 H         -1.79271   3.611026   2.767723 H        1 UNL1     0.0234
     118 H         0.802104   7.561683   -1.643321 H        1 UNL1     0.0309
     119 H         2.100764   7.545491   -2.876723 H        1 UNL1     0.0309
     120 H         1.364384   6.067491   -2.297571 H        1 UNL1     0.0309
     121 H         -0.547896   6.562548   2.049051 H        1 UNL1     0.0524
     122 H         -2.270406   6.240201   1.812598 H        1 UNL1     0.0524
     123 H         -1.476674   5.725241   3.322085 H        1 UNL1     0.0524
@<TRIPOS>BOND
     1     1     2    1
     2     1    42    1
     3     2     3    2
     4     3     4    1
     5     4     5    2
     6     5     7    1
     7     6    75    1
     8     6    76    1
     9     6    77    1
    10     7     9   am
    11     9    10    1
    12    10    11    2
    13    10    43    1
    14    11    14    1
    15    11    15    1
    16    12    13   ar
    17    12    27   ar
    18    12    43    1
    19    13    14    1
    20    13    30   ar
    21    14    17    2
    22    15    16    1
    23    16    17    1
    24    16    18    1
    25    16    22    1
    26    18    19    1
    27    19    20    1
    28    20    21    1
    29    21    22    1
    30    23    24    1
    31    23    88    1
    32    23    89    1
    33    24    25    1
    34    24    26    1
    35    24    90    1
    36    25    91    1
    37    25    92    1
    38    25    93    1
    39    26    94    1
    40    26    95    1
    41    26    96    1
    42    27    28   ar
    43    28    29   ar
    44    29    30   ar
    45    29    31    1
    46    30    33    1
    47    31    32    1
    48    32    33    1
    49    32    35    1
    50    34    97    1
    51    34    98    1
    52    34    99    1
    53    35    61    1
    54    36    37    1
    55    36    60    1
    56    37    38    1
    57    38    39    1
    58    39    40    1
    59    40    41    1
    60    41    42    1
    61    45   100    1
    62    47   101    1
    63    47   102    1
    64    47   103    1
    65    48   104    1
    66    49   105    1
    67    49   106    1
    68    49   107    1
    69    50   108    1
    70    51    59    1
    71    52   109    1
    72    52   110    1
    73    52   111    1
    74    53    54    1
    75    54    55    2
    76    54    56    1
    77    56   112    1
    78    56   113    1
    79    56   114    1
    80    57   115    1
    81    57   116    1
    82    57   117    1
    83    58   118    1
    84    58   119    1
    85    58   120    1
    86    59   121    1
    87    59   122    1
    88    59   123    1
    89    60    61    2
    90     1    47    1
    91     1    62    1
    92     2    63    1
    93     3    64    1
    94     4    65    1
    95     5     6    1
    96     7     8    2
    97     9    78    1
    98    15    79    1
    99    18    80    1
   100    18    81    1
   101    19    82    1
   102    19    83    1
   103    20    23    1
   104    21    84    1
   105    21    85    1
   106    22    86    1
   107    22    87    1
   108    27    45    1
   109    28    34    1
   110    32    58    1
   111    33    46    2
   112    36    51    1
   113    36    66    1
   114    37    52    1
   115    37    67    1
   116    38    53    1
   117    38    68    1
   118    42    48    1
   119    42    72    1
   120    43    44    2
   121    60    73    1
   122    61    74    1
   123    39    69    1
   124    39    57    1
   125    40    70    1
   126    40    50    1
   127    41    71    1
   128    41    49    1
