@<TRIPOS>MOLECULE
*****
 123 128 0 0 0
SMALL
GASTEIGER

@<TRIPOS>ATOM
     1 C         1.7515   -2.557855   4.410082 C.3        1 UNL1     0.0009
     2 C         1.420666   -3.908535   5.636153 C.2        1 UNL1     -0.0787
     3 C         0.854136   -4.354015   6.891795 C.2        1 UNL1     -0.0649
     4 C         0.762295   -5.93553   7.489067 C.2        1 UNL1     -0.0542
     5 C         0.104958   -6.794838   8.403712 C.2        1 UNL1     0.0115
     6 C         -0.879159   -6.835041   9.605052 C.3        1 UNL1     -0.0348
     7 C         0.209398   -8.382482   8.190474 C.2        1 UNL1     0.2441
     8 O         0.953598   -9.094941   8.85009 O.2        1 UNL1     -0.2702
     9 N         -0.796694   -8.935206   7.37904 N.am        1 UNL1     -0.2772
     10 C         -0.421331   -8.897157   6.055795 C.2        1 UNL1     0.1049
     11 C         -0.629918   -7.756192   5.4242 C.2        1 UNL1     0.0801
     12 C         1.468982   -9.449782   4.513505 C.ar        1 UNL1     0.0753
     13 C         1.33731   -8.11947   4.002094 C.ar        1 UNL1     0.0305
     14 C         0.196969   -7.275041   4.350827 C.2        1 UNL1     0.0924
     15 N         -1.342894   -6.679817   5.797843 N.pl3        1 UNL1     -0.3170
     16 C         -1.394503   -5.776862   4.678798 C.3        1 UNL1     0.1275
     17 N         -0.135838   -6.0692   3.899039 N.2        1 UNL1     -0.2557
     18 C         -2.55438   -6.220857   3.792652 C.3        1 UNL1     0.0016
     19 C         -3.822073   -6.254261   4.631357 C.3        1 UNL1     0.0026
     20 N         -4.05794   -4.924224   5.175781 N.3        1 UNL1     -0.3018
     21 C         -2.969149   -4.38493   5.993134 C.3        1 UNL1     0.0026
     22 C         -1.706897   -4.356023   5.129549 C.3        1 UNL1     0.0016
     23 C         -5.385491   -4.7719   5.737073 C.3        1 UNL1     0.0012
     24 C         -5.60029   -3.331911   6.229057 C.3        1 UNL1     -0.0339
     25 C         -4.751476   -2.331299   5.427591 C.3        1 UNL1     -0.0615
     26 C         -7.076669   -2.979041   6.178403 C.3        1 UNL1     -0.0615
     27 C         2.492637   -10.290525   4.082922 C.ar        1 UNL1     0.1347
     28 C         3.416879   -9.927821   3.119454 C.ar        1 UNL1     0.0342
     29 C         3.297351   -8.596908   2.66608 C.ar        1 UNL1     0.1435
     30 C         2.299051   -7.731399   3.114982 C.ar        1 UNL1     0.0774
     31 O         4.053353   -8.12816   1.649348 O.3        1 UNL1     -0.4436
     32 C         3.348259   -6.970309   1.177017 C.3        1 UNL1     0.3143
     33 C         2.497574   -6.519778   2.347303 C.2        1 UNL1     0.2504
     34 C         4.380245   -10.85286   2.429288 C.3        1 UNL1     -0.0327
     35 O         4.320851   -5.943157   0.948378 O.2        1 UNL1     -0.4528
     36 C         2.936625   -3.807611   -1.867906 C.3        1 UNL1     0.0854
     37 C         1.564835   -3.033636   -1.949606 C.3        1 UNL1     0.0236
     38 C         1.690618   -1.467215   -2.269369 C.3        1 UNL1     0.1131
     39 C         2.672124   -0.567812   -1.414975 C.3        1 UNL1     0.0200
     40 C         2.742516   -0.733963   0.243301 C.3        1 UNL1     0.0661
     41 C         1.413773   -0.748819   1.297735 C.3        1 UNL1     0.0091
     42 C         1.163495   -1.635099   2.884326 C.3        1 UNL1     0.0661
     43 C         0.426378   -9.93553   5.451207 C.2        1 UNL1     0.2131
     44 O         0.1937   -11.114647   5.646867 O.2        1 UNL1     -0.2851
     45 O         2.577195   -11.554013   4.664201 O.3        1 UNL1     -0.5056
     46 O         2.093448   -5.407011   2.600848 O.2        1 UNL1     -0.2836
     47 C         2.880885   -1.626011   4.925968 C.3        1 UNL1     -0.0566
     48 O         0.650346   -0.442453   3.600839 O.3        1 UNL1     -0.3909
     49 C         0.149637   -0.929403   0.487276 C.3        1 UNL1     -0.0577
     50 O         3.659347   -1.746295   0.607069 O.3        1 UNL1     -0.3910
     51 O         4.097831   -3.009342   -1.910328 O.3        1 UNL1     -0.3753
     52 C         0.519846   -3.592461   -0.929477 C.3        1 UNL1     -0.0564
     53 O         0.395539   -0.833367   -2.685701 O.3        1 UNL1     -0.4608
     54 C         -0.677857   -0.604856   -1.86501 C.2        1 UNL1     0.3042
     55 O         -0.909409   0.405453   -1.202064 O.2        1 UNL1     -0.2512
     56 C         -1.677946   -1.725778   -1.856739 C.3        1 UNL1     0.0332
     57 C         4.054466   -0.469541   -2.213504 C.3        1 UNL1     -0.0567
     58 C         2.417592   -7.457671   0.042175 C.3        1 UNL1     0.0210
     59 C         4.867628   -3.006749   -0.708966 C.3        1 UNL1     0.0372
     60 C         3.079749   -4.711476   -0.694149 C.2        1 UNL1     -0.0208
     61 C         4.103345   -4.885891   0.142855 C.2        1 UNL1     0.0882
     62 H         2.229633   -3.295953   3.754865 H        1 UNL1     0.0365
     63 H         1.957436   -4.739395   5.17353 H        1 UNL1     0.0576
     64 H         0.262205   -3.686188   7.521662 H        1 UNL1     0.0615
     65 H         1.443231   -6.497602   6.844177 H        1 UNL1     0.0622
     66 H         2.93863   -4.459901   -2.752531 H        1 UNL1     0.0645
     67 H         1.099343   -3.410262   -2.876984 H        1 UNL1     0.0362
     68 H         2.141449   -1.519797   -3.272119 H        1 UNL1     0.0741
     69 H         2.389459   0.469239   -1.537582 H        1 UNL1     0.0359
     70 H         3.254424   0.210978   0.508059 H        1 UNL1     0.0600
     71 H         1.35668   0.327792   1.551914 H        1 UNL1     0.0348
     72 H         2.249985   -1.61647   2.715485 H        1 UNL1     0.0602
     73 H         2.240467   -5.360142   -0.648466 H        1 UNL1     0.0628
     74 H         4.972555   -4.229736   0.199182 H        1 UNL1     0.1022
     75 H         -1.102891   -5.801291   9.963296 H        1 UNL1     0.0279
     76 H         -1.871343   -7.233944   9.406263 H        1 UNL1     0.0279
     77 H         -0.433906   -7.284632   10.504673 H        1 UNL1     0.0279
     78 H         -1.649814   -8.387713   7.471317 H        1 UNL1     0.1553
     79 H         -2.045055   -6.698196   6.514478 H        1 UNL1     0.1484
     80 H         -2.648921   -5.52355   2.951467 H        1 UNL1     0.0317
     81 H         -2.360983   -7.208635   3.360744 H        1 UNL1     0.0317
     82 H         -3.760192   -7.004857   5.433036 H        1 UNL1     0.0428
     83 H         -4.636076   -6.575009   3.980535 H        1 UNL1     0.0428
     84 H         -3.137106   -3.355046   6.323197 H        1 UNL1     0.0428
     85 H         -2.842787   -4.947592   6.92842 H        1 UNL1     0.0428
     86 H         -0.969289   -3.835986   5.712201 H        1 UNL1     0.0317
     87 H         -1.858786   -3.697174   4.265868 H        1 UNL1     0.0317
     88 H         -6.117004   -4.983843   4.946337 H        1 UNL1     0.0429
     89 H         -5.563461   -5.496189   6.542372 H        1 UNL1     0.0429
     90 H         -5.31276   -3.266499   7.285116 H        1 UNL1     0.0308
     91 H         -3.682208   -2.498594   5.588153 H        1 UNL1     0.0233
     92 H         -4.970045   -2.407525   4.359871 H        1 UNL1     0.0233
     93 H         -4.956365   -1.29104   5.708158 H        1 UNL1     0.0233
     94 H         -7.296087   -2.170149   6.88366 H        1 UNL1     0.0233
     95 H         -7.344154   -2.633916   5.175755 H        1 UNL1     0.0233
     96 H         -7.701575   -3.839351   6.433995 H        1 UNL1     0.0233
     97 H         4.726659   -11.644746   3.086665 H        1 UNL1     0.0280
     98 H         3.924632   -11.356232   1.566566 H        1 UNL1     0.0280
     99 H         5.25758   -10.281565   2.084322 H        1 UNL1     0.0280
     100 H         2.135702   -12.234698   4.187363 H        1 UNL1     0.2922
     101 H         2.454884   -0.847099   5.55801 H        1 UNL1     0.0236
     102 H         3.494976   -1.213408   4.126196 H        1 UNL1     0.0236
     103 H         3.591527   -2.159126   5.579397 H        1 UNL1     0.0236
     104 H         -0.31265   -0.560373   3.717899 H        1 UNL1     0.2098
     105 H         0.212542   -1.699618   -0.277331 H        1 UNL1     0.0234
     106 H         -0.75639   -1.057939   1.079325 H        1 UNL1     0.0234
     107 H         -0.0   0.0   0.0 H        1 UNL1     0.0234
     108 H         4.325295   -1.337661   1.192987 H        1 UNL1     0.2098
     109 H         -0.501222   -3.588801   -1.335825 H        1 UNL1     0.0234
     110 H         0.766399   -4.596273   -0.5671 H        1 UNL1     0.0234
     111 H         0.478845   -2.982691   -0.017093 H        1 UNL1     0.0234
     112 H         -1.413352   -2.466221   -2.617712 H        1 UNL1     0.0342
     113 H         -1.766055   -2.18878   -0.875052 H        1 UNL1     0.0342
     114 H         -2.660935   -1.310495   -2.118345 H        1 UNL1     0.0342
     115 H         4.57868   -1.434699   -2.242825 H        1 UNL1     0.0234
     116 H         3.948666   -0.121929   -3.243077 H        1 UNL1     0.0234
     117 H         4.80626   0.166225   -1.714958 H        1 UNL1     0.0234
     118 H         1.560287   -8.03615   0.428693 H        1 UNL1     0.0309
     119 H         2.045446   -6.643479   -0.587747 H        1 UNL1     0.0309
     120 H         2.913246   -8.162325   -0.634505 H        1 UNL1     0.0309
     121 H         4.506139   -3.822902   -0.084004 H        1 UNL1     0.0524
     122 H         5.939492   -3.183428   -0.898515 H        1 UNL1     0.0524
     123 H         4.75274   -2.058797   -0.191007 H        1 UNL1     0.0524
@<TRIPOS>BOND
     1     1     2    1
     2     1    42    1
     3     2     3    2
     4     3     4    1
     5     4     5    2
     6     5     7    1
     7     6    75    1
     8     6    76    1
     9     6    77    1
    10     7     9   am
    11     9    10    1
    12    10    11    2
    13    10    43    1
    14    11    14    1
    15    11    15    1
    16    12    13   ar
    17    12    27   ar
    18    12    43    1
    19    13    14    1
    20    13    30   ar
    21    14    17    2
    22    15    16    1
    23    16    17    1
    24    16    18    1
    25    16    22    1
    26    18    19    1
    27    19    20    1
    28    20    21    1
    29    21    22    1
    30    23    24    1
    31    23    88    1
    32    23    89    1
    33    24    25    1
    34    24    26    1
    35    24    90    1
    36    25    91    1
    37    25    92    1
    38    25    93    1
    39    26    94    1
    40    26    95    1
    41    26    96    1
    42    27    28   ar
    43    28    29   ar
    44    29    30   ar
    45    29    31    1
    46    30    33    1
    47    31    32    1
    48    32    33    1
    49    32    35    1
    50    34    97    1
    51    34    98    1
    52    34    99    1
    53    35    61    1
    54    36    37    1
    55    36    60    1
    56    37    38    1
    57    38    39    1
    58    39    40    1
    59    40    41    1
    60    41    42    1
    61    45   100    1
    62    47   101    1
    63    47   102    1
    64    47   103    1
    65    48   104    1
    66    49   105    1
    67    49   106    1
    68    49   107    1
    69    50   108    1
    70    51    59    1
    71    52   109    1
    72    52   110    1
    73    52   111    1
    74    53    54    1
    75    54    55    2
    76    54    56    1
    77    56   112    1
    78    56   113    1
    79    56   114    1
    80    57   115    1
    81    57   116    1
    82    57   117    1
    83    58   118    1
    84    58   119    1
    85    58   120    1
    86    59   121    1
    87    59   122    1
    88    59   123    1
    89    60    61    2
    90     1    47    1
    91     1    62    1
    92     2    63    1
    93     3    64    1
    94     4    65    1
    95     5     6    1
    96     7     8    2
    97     9    78    1
    98    15    79    1
    99    18    80    1
   100    18    81    1
   101    19    82    1
   102    19    83    1
   103    20    23    1
   104    21    84    1
   105    21    85    1
   106    22    86    1
   107    22    87    1
   108    27    45    1
   109    28    34    1
   110    32    58    1
   111    33    46    2
   112    36    51    1
   113    36    66    1
   114    37    52    1
   115    37    67    1
   116    38    53    1
   117    38    68    1
   118    42    48    1
   119    42    72    1
   120    43    44    2
   121    60    73    1
   122    61    74    1
   123    39    69    1
   124    39    57    1
   125    40    70    1
   126    40    50    1
   127    41    71    1
   128    41    49    1
