@<TRIPOS>MOLECULE
*****
 123 128 0 0 0
SMALL
GASTEIGER

@<TRIPOS>ATOM
     1 C         5.126258   1.832046   0.603884 C.3        1 UNL1     0.0009
     2 C         6.564969   2.668967   -0.212639 C.2        1 UNL1     -0.0787
     3 C         7.860908   2.597705   -0.85413 C.2        1 UNL1     -0.0649
     4 C         8.731373   3.853317   -1.583573 C.2        1 UNL1     -0.0542
     5 C         9.764078   4.170437   -2.500106 C.2        1 UNL1     0.0115
     6 C         10.919289   3.570914   -3.348271 C.3        1 UNL1     -0.0348
     7 C         9.845565   5.659678   -3.09383 C.2        1 UNL1     0.2441
     8 O         10.647798   6.492342   -2.694305 O.2        1 UNL1     -0.2702
     9 N         9.114545   5.862745   -4.277268 N.am        1 UNL1     -0.2772
     10 C         7.819581   6.225117   -3.985589 C.2        1 UNL1     0.1049
     11 C         6.985152   5.237241   -3.717164 C.2        1 UNL1     0.0801
     12 C         6.466896   7.798626   -2.588575 C.ar        1 UNL1     0.0753
     13 C         5.718864   6.654568   -2.16409 C.ar        1 UNL1     0.0305
     14 C         5.870596   5.356001   -2.816588 C.2        1 UNL1     0.0924
     15 N         7.133621   3.911795   -3.883528 N.pl3        1 UNL1     -0.3170
     16 C         5.868437   3.288704   -3.598361 C.3        1 UNL1     0.1275
     17 N         5.196998   4.225468   -2.624007 N.2        1 UNL1     -0.2557
     18 C         5.039153   3.342859   -4.877837 C.3        1 UNL1     0.0016
     19 C         5.827234   2.680341   -5.99658 C.3        1 UNL1     0.0026
     20 N         6.113542   1.304142   -5.615615 N.3        1 UNL1     -0.3018
     21 C         6.855573   1.147343   -4.362949 C.3        1 UNL1     0.0026
     22 C         6.043672   1.815939   -3.252234 C.3        1 UNL1     0.0016
     23 C         6.593316   0.50077   -6.722437 C.3        1 UNL1     0.0012
     24 C         5.46033   0.235459   -7.726285 C.3        1 UNL1     -0.0339
     25 C         5.481414   1.251983   -8.879668 C.3        1 UNL1     -0.0615
     26 C         5.54159   -1.192266   -8.237925 C.3        1 UNL1     -0.0615
     27 C         6.230151   9.058504   -2.043802 C.ar        1 UNL1     0.1347
     28 C         5.248325   9.304357   -1.100604 C.ar        1 UNL1     0.0342
     29 C         4.557633   8.154648   -0.66211 C.ar        1 UNL1     0.1435
     30 C         4.808744   6.88043   -1.172534 C.ar        1 UNL1     0.0774
     31 O         3.498629   8.243963   0.17188 O.3        1 UNL1     -0.4436
     32 C         2.801102   7.000146   0.006807 C.3        1 UNL1     0.3143
     33 C         3.841353   6.028526   -0.512853 C.2        1 UNL1     0.2504
     34 C         4.769695   10.659257   -0.658721 C.3        1 UNL1     -0.0327
     35 O         2.422787   6.547361   1.312608 O.2        1 UNL1     -0.4528
     36 C         -0.778363   4.563284   0.839144 C.3        1 UNL1     0.0854
     37 C         -1.044665   3.304547   -0.073098 C.3        1 UNL1     0.0236
     38 C         -1.638501   2.027496   0.693873 C.3        1 UNL1     0.1131
     39 C         -0.928876   1.499117   2.005176 C.3        1 UNL1     0.0200
     40 C         0.733473   1.381582   2.077414 C.3        1 UNL1     0.0661
     41 C         1.728194   0.63812   0.921817 C.3        1 UNL1     0.0091
     42 C         3.439825   1.033993   0.393606 C.3        1 UNL1     0.0661
     43 C         7.441734   7.61567   -3.692423 C.2        1 UNL1     0.2131
     44 O         7.839865   8.525869   -4.39653 O.2        1 UNL1     -0.2851
     45 O         7.033178   10.110755   -2.478949 O.3        1 UNL1     -0.5056
     46 O         3.875498   4.824479   -0.390549 O.2        1 UNL1     -0.2836
     47 C         5.502228   1.39846   2.046323 C.3        1 UNL1     -0.0566
     48 O         3.910908   -0.369848   0.473788 O.3        1 UNL1     -0.3909
     49 C         0.922108   0.400788   -0.335717 C.3        1 UNL1     -0.0577
     50 O         1.305004   2.60647   2.490603 O.3        1 UNL1     -0.3910
     51 O         -0.92589   4.360951   2.22649 O.3        1 UNL1     -0.3753
     52 C         0.024347   3.170656   -1.20634 C.3        1 UNL1     -0.0564
     53 O         -2.205766   0.985269   -0.224984 O.3        1 UNL1     -0.4608
     54 C         -2.411546   -0.330924   0.096296 C.2        1 UNL1     0.3042
     55 O         -1.813796   -1.310385   -0.347763 O.2        1 UNL1     -0.2512
     56 C         -3.457935   -0.53514   1.154634 C.3        1 UNL1     0.0332
     57 C         -1.685391   2.146127   3.25707 C.3        1 UNL1     -0.0567
     58 C         1.742887   7.23512   -1.096142 C.3        1 UNL1     0.0210
     59 C         -1.311841   5.520094   2.963576 C.3        1 UNL1     0.0372
     60 C         0.543817   5.216648   0.638855 C.2        1 UNL1     -0.0208
     61 C         1.432269   5.660748   1.528896 C.2        1 UNL1     0.0882
     62 H         4.631915   2.807279   0.689082 H        1 UNL1     0.0365
     63 H         6.278687   3.717248   -0.104848 H        1 UNL1     0.0576
     64 H         8.339263   1.640498   -1.073306 H        1 UNL1     0.0615
     65 H         8.222067   4.757623   -1.239597 H        1 UNL1     0.0622
     66 H         -1.529628   5.299356   0.520012 H        1 UNL1     0.0645
     67 H         -1.903495   3.60376   -0.698751 H        1 UNL1     0.0362
     68 H         -2.599518   2.445494   1.030395 H        1 UNL1     0.0741
     69 H         -1.246677   0.481064   2.186779 H        1 UNL1     0.0359
     70 H         0.839624   0.716577   2.955799 H        1 UNL1     0.0600
     71 H         1.781099   -0.385368   1.342091 H        1 UNL1     0.0348
     72 H         3.306774   1.51287   1.37457 H        1 UNL1     0.0602
     73 H         0.678198   5.423743   -0.393764 H        1 UNL1     0.0628
     74 H         1.397796   5.441698   2.596634 H        1 UNL1     0.1022
     75 H         10.979799   2.465423   -3.202455 H        1 UNL1     0.0279
     76 H         10.824991   3.659944   -4.428202 H        1 UNL1     0.0279
     77 H         11.912523   3.890202   -3.000072 H        1 UNL1     0.0279
     78 H         9.077587   4.995876   -4.809481 H        1 UNL1     0.1553
     79 H         7.81788   3.499897   -4.491033 H        1 UNL1     0.1484
     80 H         4.082893   2.834165   -4.705896 H        1 UNL1     0.0317
     81 H         4.80002   4.37763   -5.145634 H        1 UNL1     0.0317
     82 H         6.753227   3.229283   -6.22266 H        1 UNL1     0.0428
     83 H         5.218471   2.731597   -6.899813 H        1 UNL1     0.0428
     84 H         6.987826   0.104274   -4.059093 H        1 UNL1     0.0428
     85 H         7.880998   1.533643   -4.444156 H        1 UNL1     0.0428
     86 H         6.546781   1.567521   -2.336178 H        1 UNL1     0.0317
     87 H         5.070352   1.320756   -3.149577 H        1 UNL1     0.0317
     88 H         7.387761   1.06138   -7.23221 H        1 UNL1     0.0429
     89 H         7.038071   -0.438738   -6.369887 H        1 UNL1     0.0429
     90 H         4.496632   0.31395   -7.209238 H        1 UNL1     0.0308
     91 H         6.439343   1.234213   -9.408021 H        1 UNL1     0.0233
     92 H         4.676473   1.047549   -9.589517 H        1 UNL1     0.0233
     93 H         5.328758   2.280989   -8.532279 H        1 UNL1     0.0233
     94 H         4.862055   -1.328779   -9.086118 H        1 UNL1     0.0233
     95 H         6.55705   -1.408911   -8.581245 H        1 UNL1     0.0233
     96 H         5.271282   -1.911148   -7.459394 H        1 UNL1     0.0233
     97 H         3.963264   10.590361   0.065263 H        1 UNL1     0.0280
     98 H         5.563382   11.239487   -0.170203 H        1 UNL1     0.0280
     99 H         4.403154   11.223928   -1.531583 H        1 UNL1     0.0280
     100 H         7.958019   9.957566   -2.396334 H        1 UNL1     0.2922
     101 H         4.637884   0.944955   2.530988 H        1 UNL1     0.0236
     102 H         5.926499   2.207335   2.640206 H        1 UNL1     0.0236
     103 H         6.273155   0.609914   2.054057 H        1 UNL1     0.0236
     104 H         4.318223   -0.494505   1.35329 H        1 UNL1     0.2098
     105 H         0.705747   1.300095   -0.906897 H        1 UNL1     0.0234
     106 H         1.317094   -0.376347   -0.989914 H        1 UNL1     0.0234
     107 H         0.0   -0.0   0.0 H        1 UNL1     0.0234
     108 H         1.106104   3.267167   1.799455 H        1 UNL1     0.2098
     109 H         1.042825   3.065568   -0.807128 H        1 UNL1     0.0234
     110 H         -0.184063   2.348714   -1.89968 H        1 UNL1     0.0234
     111 H         0.047198   4.061237   -1.848437 H        1 UNL1     0.0234
     112 H         -3.570051   -1.602894   1.366002 H        1 UNL1     0.0342
     113 H         -3.235304   0.021801   2.063532 H        1 UNL1     0.0342
     114 H         -4.416735   -0.166509   0.764791 H        1 UNL1     0.0342
     115 H         -2.745585   1.859226   3.286454 H        1 UNL1     0.0234
     116 H         -1.247947   1.886045   4.223015 H        1 UNL1     0.0234
     117 H         -1.76358   3.245657   3.203593 H        1 UNL1     0.0234
     118 H         0.82583   7.703465   -0.697813 H        1 UNL1     0.0309
     119 H         2.118285   7.83571   -1.93075 H        1 UNL1     0.0309
     120 H         1.378615   6.299926   -1.535259 H        1 UNL1     0.0309
     121 H         -0.523508   6.263118   2.84609 H        1 UNL1     0.0524
     122 H         -2.246704   5.965123   2.58408 H        1 UNL1     0.0524
     123 H         -1.440044   5.272427   4.013489 H        1 UNL1     0.0524
@<TRIPOS>BOND
     1     1     2    1
     2     1    42    1
     3     2     3    2
     4     3     4    1
     5     4     5    2
     6     5     7    1
     7     6    75    1
     8     6    76    1
     9     6    77    1
    10     7     9   am
    11     9    10    1
    12    10    11    2
    13    10    43    1
    14    11    14    1
    15    11    15    1
    16    12    13   ar
    17    12    27   ar
    18    12    43    1
    19    13    14    1
    20    13    30   ar
    21    14    17    2
    22    15    16    1
    23    16    17    1
    24    16    18    1
    25    16    22    1
    26    18    19    1
    27    19    20    1
    28    20    21    1
    29    21    22    1
    30    23    24    1
    31    23    88    1
    32    23    89    1
    33    24    25    1
    34    24    26    1
    35    24    90    1
    36    25    91    1
    37    25    92    1
    38    25    93    1
    39    26    94    1
    40    26    95    1
    41    26    96    1
    42    27    28   ar
    43    28    29   ar
    44    29    30   ar
    45    29    31    1
    46    30    33    1
    47    31    32    1
    48    32    33    1
    49    32    35    1
    50    34    97    1
    51    34    98    1
    52    34    99    1
    53    35    61    1
    54    36    37    1
    55    36    60    1
    56    37    38    1
    57    38    39    1
    58    39    40    1
    59    40    41    1
    60    41    42    1
    61    45   100    1
    62    47   101    1
    63    47   102    1
    64    47   103    1
    65    48   104    1
    66    49   105    1
    67    49   106    1
    68    49   107    1
    69    50   108    1
    70    51    59    1
    71    52   109    1
    72    52   110    1
    73    52   111    1
    74    53    54    1
    75    54    55    2
    76    54    56    1
    77    56   112    1
    78    56   113    1
    79    56   114    1
    80    57   115    1
    81    57   116    1
    82    57   117    1
    83    58   118    1
    84    58   119    1
    85    58   120    1
    86    59   121    1
    87    59   122    1
    88    59   123    1
    89    60    61    2
    90     1    47    1
    91     1    62    1
    92     2    63    1
    93     3    64    1
    94     4    65    1
    95     5     6    1
    96     7     8    2
    97     9    78    1
    98    15    79    1
    99    18    80    1
   100    18    81    1
   101    19    82    1
   102    19    83    1
   103    20    23    1
   104    21    84    1
   105    21    85    1
   106    22    86    1
   107    22    87    1
   108    27    45    1
   109    28    34    1
   110    32    58    1
   111    33    46    2
   112    36    51    1
   113    36    66    1
   114    37    52    1
   115    37    67    1
   116    38    53    1
   117    38    68    1
   118    42    48    1
   119    42    72    1
   120    43    44    2
   121    60    73    1
   122    61    74    1
   123    39    69    1
   124    39    57    1
   125    40    70    1
   126    40    50    1
   127    41    71    1
   128    41    49    1
