@<TRIPOS>MOLECULE
*****
 123 128 0 0 0
SMALL
GASTEIGER

@<TRIPOS>ATOM
     1 C         -3.462182   -1.259802   -2.285758 C.3        1 UNL1     0.0009
     2 C         -5.048385   -1.988769   -1.661578 C.2        1 UNL1     -0.0787
     3 C         -5.934416   -3.12335   -1.507557 C.2        1 UNL1     -0.0649
     4 C         -7.379112   -3.20363   -0.628487 C.2        1 UNL1     -0.0542
     5 C         -8.312132   -4.068192   -0.00472 C.2        1 UNL1     0.0115
     6 C         -8.731705   -5.554697   0.161362 C.3        1 UNL1     -0.0348
     7 C         -9.33034   -3.461311   1.07784 C.2        1 UNL1     0.2441
     8 O         -10.502501   -3.218277   0.825848 O.2        1 UNL1     -0.2702
     9 N         -8.857744   -3.472033   2.401731 N.am        1 UNL1     -0.2772
     10 C         -8.147353   -2.323938   2.667333 C.2        1 UNL1     0.1049
     11 C         -6.883118   -2.320255   2.285339 C.2        1 UNL1     0.0801
     12 C         -8.255668   0.16703   2.465644 C.ar        1 UNL1     0.0753
     13 C         -6.960398   0.095968   1.860801 C.ar        1 UNL1     0.0305
     14 C         -6.177512   -1.137735   1.871646 C.2        1 UNL1     0.0924
     15 N         -6.105407   -3.33183   1.862951 N.pl3        1 UNL1     -0.3170
     16 C         -4.762786   -2.830366   1.735846 C.3        1 UNL1     0.1275
     17 N         -4.934614   -1.35797   1.452565 N.2        1 UNL1     -0.2557
     18 C         -4.113004   -2.92363   3.113085 C.3        1 UNL1     0.0016
     19 C         -4.202677   -4.362257   3.596719 C.3        1 UNL1     0.0026
     20 N         -3.522779   -5.221516   2.637323 N.3        1 UNL1     -0.3018
     21 C         -4.037925   -5.154233   1.268212 C.3        1 UNL1     0.0026
     22 C         -3.934094   -3.701397   0.800901 C.3        1 UNL1     0.0016
     23 C         -3.28955   -6.559064   3.144486 C.3        1 UNL1     0.0012
     24 C         -3.332134   -6.567649   4.680673 C.3        1 UNL1     -0.0339
     25 C         -2.347802   -7.594261   5.264809 C.3        1 UNL1     -0.0615
     26 C         -3.067343   -5.171501   5.216803 C.3        1 UNL1     -0.0615
     27 C         -8.943805   1.374525   2.558066 C.ar        1 UNL1     0.1347
     28 C         -8.423821   2.579023   2.118918 C.ar        1 UNL1     0.0342
     29 C         -7.168316   2.476861   1.482966 C.ar        1 UNL1     0.1435
     30 C         -6.483178   1.26842   1.35077 C.ar        1 UNL1     0.0774
     31 O         -6.481128   3.574918   1.099495 O.3        1 UNL1     -0.4436
     32 C         -5.126459   3.122559   0.95418 C.3        1 UNL1     0.3143
     33 C         -5.230475   1.629007   0.72031 C.2        1 UNL1     0.2504
     34 C         -8.98917   3.941523   2.408876 C.3        1 UNL1     -0.0327
     35 O         -4.612019   3.698972   -0.252614 O.2        1 UNL1     -0.4528
     36 C         -0.881865   4.125875   0.305769 C.3        1 UNL1     0.0854
     37 C         0.200084   3.041108   0.680187 C.3        1 UNL1     0.0236
     38 C         1.45065   2.960387   -0.32047 C.3        1 UNL1     0.1131
     39 C         1.203251   2.839801   -1.878199 C.3        1 UNL1     0.0200
     40 C         0.037183   1.804666   -2.470836 C.3        1 UNL1     0.0661
     41 C         -0.15101   0.172887   -2.04717 C.3        1 UNL1     0.0091
     42 C         -1.663189   -0.85886   -1.927942 C.3        1 UNL1     0.0661
     43 C         -8.803775   -1.071749   3.071667 C.2        1 UNL1     0.2131
     44 O         -9.668113   -1.076013   3.929361 O.2        1 UNL1     -0.2851
     45 O         -10.218611   1.349159   3.119906 O.3        1 UNL1     -0.5056
     46 O         -4.463159   0.903857   0.127658 O.2        1 UNL1     -0.2836
     47 C         -3.530422   -1.056348   -3.823266 C.3        1 UNL1     -0.0566
     48 O         -1.087058   -1.993136   -2.689918 O.3        1 UNL1     -0.3909
     49 C         0.673792   -0.108613   -0.811066 C.3        1 UNL1     -0.0577
     50 O         -1.223906   2.441564   -2.512557 O.3        1 UNL1     -0.3910
     51 O         -0.710129   4.762835   -0.940113 O.3        1 UNL1     -0.3753
     52 C         -0.449316   1.76272   1.303849 C.3        1 UNL1     -0.0564
     53 O         2.613788   2.190124   0.232821 O.3        1 UNL1     -0.4608
     54 C         2.602366   1.453844   1.388542 C.2        1 UNL1     0.3042
     55 O         2.421538   0.241964   1.500282 O.2        1 UNL1     -0.2512
     56 C         2.905002   2.260995   2.61884 C.3        1 UNL1     0.0332
     57 C         1.272694   4.314653   -2.493152 C.3        1 UNL1     -0.0567
     58 C         -4.435129   3.367368   2.315673 C.3        1 UNL1     0.0210
     59 C         -0.906017   3.921294   -2.075587 C.3        1 UNL1     0.0372
     60 C         -2.29155   3.650909   0.354327 C.2        1 UNL1     -0.0208
     61 C         -3.295809   3.834997   -0.503763 C.2        1 UNL1     0.0882
     62 H         -3.745125   -0.302985   -1.830613 H        1 UNL1     0.0365
     63 H         -5.536235   -1.099184   -1.257709 H        1 UNL1     0.0576
     64 H         -5.644494   -4.12453   -1.834196 H        1 UNL1     0.0615
     65 H         -7.617362   -2.15659   -0.422507 H        1 UNL1     0.0622
     66 H         -0.793201   4.887444   1.093294 H        1 UNL1     0.0645
     67 H         0.67502   3.440188   1.593275 H        1 UNL1     0.0362
     68 H         1.872608   3.96564   -0.169012 H        1 UNL1     0.0741
     69 H         2.106598   2.472488   -2.346656 H        1 UNL1     0.0359
     70 H         0.353396   1.747566   -3.529991 H        1 UNL1     0.0600
     71 H         0.466861   -0.30346   -2.833481 H        1 UNL1     0.0348
     72 H         -1.933135   0.003572   -2.554564 H        1 UNL1     0.0602
     73 H         -2.47521   3.197958   1.296851 H        1 UNL1     0.0628
     74 H         -3.180595   4.237651   -1.510656 H        1 UNL1     0.1022
     75 H         -8.410205   -5.94383   1.157478 H        1 UNL1     0.0279
     76 H         -9.799844   -5.759988   0.163293 H        1 UNL1     0.0279
     77 H         -8.190422   -6.227963   -0.519392 H        1 UNL1     0.0279
     78 H         -8.226913   -4.259946   2.53335 H        1 UNL1     0.1553
     79 H         -6.310735   -4.299671   2.030453 H        1 UNL1     0.1484
     80 H         -3.070878   -2.589848   3.040072 H        1 UNL1     0.0317
     81 H         -4.6074   -2.254156   3.825144 H        1 UNL1     0.0317
     82 H         -5.2461   -4.678777   3.741617 H        1 UNL1     0.0428
     83 H         -3.735203   -4.405846   4.580903 H        1 UNL1     0.0428
     84 H         -3.460165   -5.747356   0.552524 H        1 UNL1     0.0428
     85 H         -5.055165   -5.562867   1.193663 H        1 UNL1     0.0428
     86 H         -4.192542   -3.713429   -0.241715 H        1 UNL1     0.0317
     87 H         -2.88458   -3.38263   0.798555 H        1 UNL1     0.0317
     88 H         -4.089178   -7.210934   2.769047 H        1 UNL1     0.0429
     89 H         -2.340854   -6.966832   2.772365 H        1 UNL1     0.0429
     90 H         -4.34487   -6.828056   5.010472 H        1 UNL1     0.0308
     91 H         -1.479931   -7.102211   5.714017 H        1 UNL1     0.0233
     92 H         -2.838516   -8.214395   6.018628 H        1 UNL1     0.0233
     93 H         -1.963714   -8.28442   4.503894 H        1 UNL1     0.0233
     94 H         -3.876559   -4.494282   4.9229 H        1 UNL1     0.0233
     95 H         -3.025456   -5.192547   6.309398 H        1 UNL1     0.0233
     96 H         -2.124608   -4.769614   4.835088 H        1 UNL1     0.0233
     97 H         -8.762323   4.653008   1.620485 H        1 UNL1     0.0280
     98 H         -10.083607   3.925935   2.493847 H        1 UNL1     0.0280
     99 H         -8.565338   4.323901   3.351876 H        1 UNL1     0.0280
     100 H         -10.231422   1.297506   4.059476 H        1 UNL1     0.2922
     101 H         -3.954573   -0.077534   -4.046145 H        1 UNL1     0.0236
     102 H         -4.058474   -1.857893   -4.338697 H        1 UNL1     0.0236
     103 H         -2.528407   -1.038536   -4.283529 H        1 UNL1     0.0236
     104 H         -1.828319   -2.477763   -3.103004 H        1 UNL1     0.2098
     105 H         1.088528   -1.112533   -0.766919 H        1 UNL1     0.0234
     106 H         1.448114   0.629521   -0.602472 H        1 UNL1     0.0234
     107 H         0.0   0.0   0.0 H        1 UNL1     0.0234
     108 H         -1.648067   2.190268   -3.355591 H        1 UNL1     0.2098
     109 H         -1.111321   1.244825   0.595862 H        1 UNL1     0.0234
     110 H         0.287187   1.055901   1.700981 H        1 UNL1     0.0234
     111 H         -1.076248   2.009251   2.171101 H        1 UNL1     0.0234
     112 H         3.943782   2.603927   2.592747 H        1 UNL1     0.0342
     113 H         2.219785   3.098964   2.737698 H        1 UNL1     0.0342
     114 H         2.787733   1.60828   3.49484 H        1 UNL1     0.0342
     115 H         2.067052   4.914239   -2.027664 H        1 UNL1     0.0234
     116 H         1.433313   4.338352   -3.572823 H        1 UNL1     0.0234
     117 H         0.383122   4.927637   -2.267645 H        1 UNL1     0.0234
     118 H         -4.087183   2.427502   2.778914 H        1 UNL1     0.0309
     119 H         -3.595914   4.067243   2.251692 H        1 UNL1     0.0309
     120 H         -5.118266   3.780813   3.065669 H        1 UNL1     0.0309
     121 H         -1.977638   3.868431   -2.265826 H        1 UNL1     0.0524
     122 H         -0.427261   4.325124   -2.983194 H        1 UNL1     0.0524
     123 H         -0.510566   2.928528   -1.880326 H        1 UNL1     0.0524
@<TRIPOS>BOND
     1     1     2    1
     2     1    42    1
     3     2     3    2
     4     3     4    1
     5     4     5    2
     6     5     7    1
     7     6    75    1
     8     6    76    1
     9     6    77    1
    10     7     9   am
    11     9    10    1
    12    10    11    2
    13    10    43    1
    14    11    14    1
    15    11    15    1
    16    12    13   ar
    17    12    27   ar
    18    12    43    1
    19    13    14    1
    20    13    30   ar
    21    14    17    2
    22    15    16    1
    23    16    17    1
    24    16    18    1
    25    16    22    1
    26    18    19    1
    27    19    20    1
    28    20    21    1
    29    21    22    1
    30    23    24    1
    31    23    88    1
    32    23    89    1
    33    24    25    1
    34    24    26    1
    35    24    90    1
    36    25    91    1
    37    25    92    1
    38    25    93    1
    39    26    94    1
    40    26    95    1
    41    26    96    1
    42    27    28   ar
    43    28    29   ar
    44    29    30   ar
    45    29    31    1
    46    30    33    1
    47    31    32    1
    48    32    33    1
    49    32    35    1
    50    34    97    1
    51    34    98    1
    52    34    99    1
    53    35    61    1
    54    36    37    1
    55    36    60    1
    56    37    38    1
    57    38    39    1
    58    39    40    1
    59    40    41    1
    60    41    42    1
    61    45   100    1
    62    47   101    1
    63    47   102    1
    64    47   103    1
    65    48   104    1
    66    49   105    1
    67    49   106    1
    68    49   107    1
    69    50   108    1
    70    51    59    1
    71    52   109    1
    72    52   110    1
    73    52   111    1
    74    53    54    1
    75    54    55    2
    76    54    56    1
    77    56   112    1
    78    56   113    1
    79    56   114    1
    80    57   115    1
    81    57   116    1
    82    57   117    1
    83    58   118    1
    84    58   119    1
    85    58   120    1
    86    59   121    1
    87    59   122    1
    88    59   123    1
    89    60    61    2
    90     1    47    1
    91     1    62    1
    92     2    63    1
    93     3    64    1
    94     4    65    1
    95     5     6    1
    96     7     8    2
    97     9    78    1
    98    15    79    1
    99    18    80    1
   100    18    81    1
   101    19    82    1
   102    19    83    1
   103    20    23    1
   104    21    84    1
   105    21    85    1
   106    22    86    1
   107    22    87    1
   108    27    45    1
   109    28    34    1
   110    32    58    1
   111    33    46    2
   112    36    51    1
   113    36    66    1
   114    37    52    1
   115    37    67    1
   116    38    53    1
   117    38    68    1
   118    42    48    1
   119    42    72    1
   120    43    44    2
   121    60    73    1
   122    61    74    1
   123    39    69    1
   124    39    57    1
   125    40    70    1
   126    40    50    1
   127    41    71    1
   128    41    49    1
