@<TRIPOS>MOLECULE
*****
 123 128 0 0 0
SMALL
GASTEIGER

@<TRIPOS>ATOM
     1 C         4.251291   -1.433547   -3.143759 C.3        1 UNL1     0.0009
     2 C         4.955676   -1.446733   -4.858607 C.2        1 UNL1     -0.0787
     3 C         5.257128   -2.150649   -6.087296 C.2        1 UNL1     -0.0649
     4 C         5.887252   -1.513613   -7.52378 C.2        1 UNL1     -0.0542
     5 C         6.040386   -1.720786   -8.916872 C.2        1 UNL1     0.0115
     6 C         5.871397   -2.760449   -10.058742 C.3        1 UNL1     -0.0348
     7 C         6.410798   -0.469825   -9.852223 C.2        1 UNL1     0.2441
     8 O         7.539498   -0.269486   -10.279337 O.2        1 UNL1     -0.2702
     9 N         5.304785   0.232891   -10.36122 N.am        1 UNL1     -0.2772
     10 C         4.913645   1.215485   -9.48097 C.2        1 UNL1     0.1049
     11 C         4.130151   0.830758   -8.489837 C.2        1 UNL1     0.0801
     12 C         5.793391   3.108091   -8.102048 C.ar        1 UNL1     0.0753
     13 C         5.088007   2.529324   -6.999292 C.ar        1 UNL1     0.0305
     14 C         4.12728   1.445   -7.189808 C.2        1 UNL1     0.0924
     15 N         3.473617   -0.327796   -8.307504 N.pl3        1 UNL1     -0.3170
     16 C         2.624179   -0.175016   -7.156258 C.3        1 UNL1     0.1275
     17 N         3.319658   0.861955   -6.308484 N.2        1 UNL1     -0.2557
     18 C         1.326566   0.469616   -7.634122 C.3        1 UNL1     0.0016
     19 C         0.735624   -0.389268   -8.740782 C.3        1 UNL1     0.0026
     20 N         0.494373   -1.726514   -8.216759 N.3        1 UNL1     -0.3018
     21 C         1.674366   -2.404759   -7.676417 C.3        1 UNL1     0.0026
     22 C         2.249045   -1.526803   -6.563389 C.3        1 UNL1     0.0016
     23 C         -0.336083   -2.532718   -9.089124 C.3        1 UNL1     0.0012
     24 C         -1.781986   -2.012026   -9.088748 C.3        1 UNL1     -0.0339
     25 C         -2.228525   -1.591208   -10.498561 C.3        1 UNL1     -0.0615
     26 C         -2.711637   -3.05693   -8.496544 C.3        1 UNL1     -0.0615
     27 C         6.615311   4.219356   -7.929843 C.ar        1 UNL1     0.1347
     28 C         6.778674   4.86053   -6.714829 C.ar        1 UNL1     0.0342
     29 C         6.113247   4.243859   -5.634047 C.ar        1 UNL1     0.1435
     30 C         5.31539   3.109006   -5.784887 C.ar        1 UNL1     0.0774
     31 O         6.085029   4.810455   -4.408005 O.3        1 UNL1     -0.4436
     32 C         4.97459   4.186651   -3.745685 C.3        1 UNL1     0.3143
     33 C         4.776037   2.866751   -4.463079 C.2        1 UNL1     0.2504
     34 C         7.437356   6.195339   -6.503825 C.3        1 UNL1     -0.0327
     35 O         5.393921   3.877064   -2.410931 O.2        1 UNL1     -0.4528
     36 C         2.265694   4.059274   -0.268717 C.3        1 UNL1     0.0854
     37 C         0.909597   3.2676   -0.41628 C.3        1 UNL1     0.0236
     38 C         0.455305   2.455846   0.890019 C.3        1 UNL1     0.1131
     39 C         1.477105   1.482056   1.60411 C.3        1 UNL1     0.0200
     40 C         2.438575   0.458425   0.704002 C.3        1 UNL1     0.0661
     41 C         1.905345   -0.577425   -0.529 C.3        1 UNL1     0.0091
     42 C         2.747214   -1.137681   -2.059611 C.3        1 UNL1     0.0661
     43 C         5.550633   2.540526   -9.451566 C.2        1 UNL1     0.2131
     44 O         5.756453   3.150405   -10.485212 O.2        1 UNL1     -0.2851
     45 O         7.301883   4.693075   -9.045929 O.3        1 UNL1     -0.5056
     46 O         4.300242   1.839691   -4.033402 O.2        1 UNL1     -0.2836
     47 C         5.209725   -2.159187   -2.1615 C.3        1 UNL1     -0.0566
     48 O         2.403246   -2.566556   -1.861823 O.3        1 UNL1     -0.3909
     49 C         0.496233   -0.188834   -0.91745 C.3        1 UNL1     -0.0577
     50 O         3.629206   1.108739   0.307503 O.3        1 UNL1     -0.3910
     51 O         2.993043   3.820031   0.914988 O.3        1 UNL1     -0.3753
     52 C         0.725992   2.691786   -1.858389 C.3        1 UNL1     -0.0564
     53 O         -0.977232   2.010059   0.852083 O.3        1 UNL1     -0.4608
     54 C         -1.452705   0.819884   1.337199 C.2        1 UNL1     0.3042
     55 O         -2.274624   0.655413   2.237886 O.2        1 UNL1     -0.2512
     56 C         -0.916582   -0.382008   0.612808 C.3        1 UNL1     0.0332
     57 C         2.166416   2.295942   2.796005 C.3        1 UNL1     -0.0567
     58 C         3.74567   5.087607   -4.009431 C.3        1 UNL1     0.0210
     59 C         2.983027   4.895678   1.852405 C.3        1 UNL1     0.0372
     60 C         3.21857   3.890611   -1.399531 C.2        1 UNL1     -0.0208
     61 C         4.533553   3.66801   -1.396017 C.2        1 UNL1     0.0882
     62 H         4.48516   -0.364201   -3.076567 H        1 UNL1     0.0365
     63 H         5.360756   -0.434508   -4.920101 H        1 UNL1     0.0576
     64 H         4.934646   -3.181436   -6.250361 H        1 UNL1     0.0615
     65 H         6.248245   -0.523243   -7.233377 H        1 UNL1     0.0622
     66 H         1.969911   5.117786   -0.27925 H        1 UNL1     0.0645
     67 H         0.140943   4.058603   -0.46149 H        1 UNL1     0.0362
     68 H         0.315117   3.294902   1.588485 H        1 UNL1     0.0741
     69 H         0.923762   0.796548   2.232041 H        1 UNL1     0.0359
     70 H         2.758736   -0.246843   1.494669 H        1 UNL1     0.0600
     71 H         1.722373   -1.498685   0.058161 H        1 UNL1     0.0348
     72 H         3.542247   -0.777186   -1.390819 H        1 UNL1     0.0602
     73 H         2.718565   4.101775   -2.312029 H        1 UNL1     0.0628
     74 H         5.109197   3.387876   -0.513183 H        1 UNL1     0.1022
     75 H         6.311083   -3.743226   -9.762332 H        1 UNL1     0.0279
     76 H         4.851144   -3.030173   -10.322183 H        1 UNL1     0.0279
     77 H         6.468951   -2.515267   -10.948976 H        1 UNL1     0.0279
     78 H         4.519349   -0.403868   -10.478283 H        1 UNL1     0.1553
     79 H         3.277388   -0.978885   -9.045414 H        1 UNL1     0.1484
     80 H         0.637879   0.558737   -6.78528 H        1 UNL1     0.0317
     81 H         1.506277   1.486215   -8.00002 H        1 UNL1     0.0317
     82 H         1.390376   -0.422421   -9.624021 H        1 UNL1     0.0428
     83 H         -0.187804   0.089461   -9.06812 H        1 UNL1     0.0428
     84 H         1.45196   -3.373148   -7.217539 H        1 UNL1     0.0428
     85 H         2.404407   -2.643252   -8.462215 H        1 UNL1     0.0428
     86 H         3.024902   -2.111445   -6.104882 H        1 UNL1     0.0317
     87 H         1.511406   -1.409424   -5.760142 H        1 UNL1     0.0317
     88 H         0.063222   -2.454662   -10.108808 H        1 UNL1     0.0429
     89 H         -0.297032   -3.593206   -8.808743 H        1 UNL1     0.0429
     90 H         -1.849866   -1.140878   -8.426398 H        1 UNL1     0.0308
     91 H         -1.724849   -2.183234   -11.268573 H        1 UNL1     0.0233
     92 H         -3.309584   -1.702383   -10.610629 H        1 UNL1     0.0233
     93 H         -2.005813   -0.538403   -10.710311 H        1 UNL1     0.0233
     94 H         -3.744829   -2.860104   -8.802502 H        1 UNL1     0.0233
     95 H         -2.436074   -4.050995   -8.85967 H        1 UNL1     0.0233
     96 H         -2.668667   -3.055862   -7.403785 H        1 UNL1     0.0233
     97 H         6.766215   6.912129   -6.040132 H        1 UNL1     0.0280
     98 H         8.308829   6.126404   -5.839717 H        1 UNL1     0.0280
     99 H         7.762315   6.604088   -7.474609 H        1 UNL1     0.0280
     100 H         7.227519   5.620572   -9.18679 H        1 UNL1     0.2922
     101 H         5.736953   -1.425102   -1.552562 H        1 UNL1     0.0236
     102 H         5.894312   -2.845384   -2.658952 H        1 UNL1     0.0236
     103 H         4.663328   -2.784325   -1.435659 H        1 UNL1     0.0236
     104 H         1.674268   -2.607275   -1.212282 H        1 UNL1     0.2098
     105 H         0.429442   0.711352   -1.523268 H        1 UNL1     0.0234
     106 H         -0.089898   -0.990633   -1.366334 H        1 UNL1     0.0234
     107 H         -0.0   0.0   0.0 H        1 UNL1     0.0234
     108 H         4.039094   0.562939   -0.390969 H        1 UNL1     0.2098
     109 H         0.703986   3.481761   -2.622042 H        1 UNL1     0.0234
     110 H         1.483472   1.946488   -2.123905 H        1 UNL1     0.0234
     111 H         -0.225249   2.152728   -1.960871 H        1 UNL1     0.0234
     112 H         -1.34737   -1.294461   1.036125 H        1 UNL1     0.0342
     113 H         -1.095076   -0.32691   -0.460014 H        1 UNL1     0.0342
     114 H         0.170484   -0.419413   0.767899 H        1 UNL1     0.0342
     115 H         2.386321   1.650553   3.657575 H        1 UNL1     0.0234
     116 H         3.095701   2.794728   2.513708 H        1 UNL1     0.0234
     117 H         1.502759   3.047723   3.256794 H        1 UNL1     0.0234
     118 H         3.407185   5.605281   -3.094856 H        1 UNL1     0.0309
     119 H         3.916839   5.827844   -4.797436 H        1 UNL1     0.0309
     120 H         2.863437   4.515675   -4.31711 H        1 UNL1     0.0309
     121 H         3.726121   5.623303   1.527246 H        1 UNL1     0.0524
     122 H         2.0083   5.410113   1.888491 H        1 UNL1     0.0524
     123 H         3.225922   4.530399   2.846219 H        1 UNL1     0.0524
@<TRIPOS>BOND
     1     1     2    1
     2     1    42    1
     3     2     3    2
     4     3     4    1
     5     4     5    2
     6     5     7    1
     7     6    75    1
     8     6    76    1
     9     6    77    1
    10     7     9   am
    11     9    10    1
    12    10    11    2
    13    10    43    1
    14    11    14    1
    15    11    15    1
    16    12    13   ar
    17    12    27   ar
    18    12    43    1
    19    13    14    1
    20    13    30   ar
    21    14    17    2
    22    15    16    1
    23    16    17    1
    24    16    18    1
    25    16    22    1
    26    18    19    1
    27    19    20    1
    28    20    21    1
    29    21    22    1
    30    23    24    1
    31    23    88    1
    32    23    89    1
    33    24    25    1
    34    24    26    1
    35    24    90    1
    36    25    91    1
    37    25    92    1
    38    25    93    1
    39    26    94    1
    40    26    95    1
    41    26    96    1
    42    27    28   ar
    43    28    29   ar
    44    29    30   ar
    45    29    31    1
    46    30    33    1
    47    31    32    1
    48    32    33    1
    49    32    35    1
    50    34    97    1
    51    34    98    1
    52    34    99    1
    53    35    61    1
    54    36    37    1
    55    36    60    1
    56    37    38    1
    57    38    39    1
    58    39    40    1
    59    40    41    1
    60    41    42    1
    61    45   100    1
    62    47   101    1
    63    47   102    1
    64    47   103    1
    65    48   104    1
    66    49   105    1
    67    49   106    1
    68    49   107    1
    69    50   108    1
    70    51    59    1
    71    52   109    1
    72    52   110    1
    73    52   111    1
    74    53    54    1
    75    54    55    2
    76    54    56    1
    77    56   112    1
    78    56   113    1
    79    56   114    1
    80    57   115    1
    81    57   116    1
    82    57   117    1
    83    58   118    1
    84    58   119    1
    85    58   120    1
    86    59   121    1
    87    59   122    1
    88    59   123    1
    89    60    61    2
    90     1    47    1
    91     1    62    1
    92     2    63    1
    93     3    64    1
    94     4    65    1
    95     5     6    1
    96     7     8    2
    97     9    78    1
    98    15    79    1
    99    18    80    1
   100    18    81    1
   101    19    82    1
   102    19    83    1
   103    20    23    1
   104    21    84    1
   105    21    85    1
   106    22    86    1
   107    22    87    1
   108    27    45    1
   109    28    34    1
   110    32    58    1
   111    33    46    2
   112    36    51    1
   113    36    66    1
   114    37    52    1
   115    37    67    1
   116    38    53    1
   117    38    68    1
   118    42    48    1
   119    42    72    1
   120    43    44    2
   121    60    73    1
   122    61    74    1
   123    39    69    1
   124    39    57    1
   125    40    70    1
   126    40    50    1
   127    41    71    1
   128    41    49    1
