@<TRIPOS>MOLECULE
*****
 123 128 0 0 0
SMALL
GASTEIGER

@<TRIPOS>ATOM
     1 C         4.171349   2.340408   0.929894 C.3        1 UNL1     0.0009
     2 C         5.946824   2.048033   0.483531 C.2        1 UNL1     -0.0787
     3 C         7.30873   1.753587   0.876674 C.2        1 UNL1     -0.0649
     4 C         8.641221   1.461456   -0.126065 C.2        1 UNL1     -0.0542
     5 C         9.937339   0.894117   -0.198734 C.2        1 UNL1     0.0115
     6 C         11.093215   0.288896   0.644463 C.3        1 UNL1     -0.0348
     7 C         10.561803   0.565519   -1.640628 C.2        1 UNL1     0.2441
     8 O         11.401859   1.273358   -2.178955 O.2        1 UNL1     -0.2702
     9 N         10.275108   -0.72183   -2.127136 N.am        1 UNL1     -0.2772
     10 C         9.088005   -0.718887   -2.822908 C.2        1 UNL1     0.1049
     11 C         7.988409   -0.819091   -2.098292 C.2        1 UNL1     0.0801
     12 C         7.842009   0.503639   -4.614627 C.ar        1 UNL1     0.0753
     13 C         6.737946   0.551687   -3.705043 C.ar        1 UNL1     0.0305
     14 C         6.732461   -0.223909   -2.466708 C.2        1 UNL1     0.0924
     15 N         7.83464   -1.134708   -0.800884 N.pl3        1 UNL1     -0.3170
     16 C         6.425368   -1.274881   -0.546801 C.3        1 UNL1     0.1275
     17 N         5.766654   -0.376669   -1.56515 N.2        1 UNL1     -0.2557
     18 C         6.03721   -2.700838   -0.925854 C.3        1 UNL1     0.0016
     19 C         6.914813   -3.66725   -0.146462 C.3        1 UNL1     0.0026
     20 N         6.719623   -3.432032   1.277476 N.3        1 UNL1     -0.3018
     21 C         7.008592   -2.06892   1.727801 C.3        1 UNL1     0.0026
     22 C         6.112816   -1.115345   0.935227 C.3        1 UNL1     0.0016
     23 C         7.273001   -4.486029   2.104222 C.3        1 UNL1     0.0012
     24 C         8.755626   -4.213707   2.403253 C.3        1 UNL1     -0.0339
     25 C         9.560377   -5.520715   2.493616 C.3        1 UNL1     -0.0615
     26 C         9.33298   -3.272735   1.360174 C.3        1 UNL1     -0.0615
     27 C         7.789736   1.148979   -5.847884 C.ar        1 UNL1     0.1347
     28 C         6.676737   1.837263   -6.296826 C.ar        1 UNL1     0.0342
     29 C         5.620226   1.912444   -5.364466 C.ar        1 UNL1     0.1435
     30 C         5.672334   1.301491   -4.110974 C.ar        1 UNL1     0.0774
     31 O         4.427051   2.453768   -5.693568 O.3        1 UNL1     -0.4436
     32 C         3.512046   1.936401   -4.71583 C.3        1 UNL1     0.3143
     33 C         4.373191   1.56148   -3.52668 C.2        1 UNL1     0.2504
     34 C         6.45451   2.336709   -7.697279 C.3        1 UNL1     -0.0327
     35 O         2.67513   3.022265   -4.299029 O.2        1 UNL1     -0.4528
     36 C         -0.654386   1.465441   -3.351025 C.3        1 UNL1     0.0854
     37 C         -0.962017   0.341151   -2.288548 C.3        1 UNL1     0.0236
     38 C         -2.055059   0.736302   -1.183623 C.3        1 UNL1     0.1131
     39 C         -1.907574   2.092769   -0.383301 C.3        1 UNL1     0.0200
     40 C         -0.422121   2.566969   0.209155 C.3        1 UNL1     0.0661
     41 C         0.63625   1.605962   1.12235 C.3        1 UNL1     0.0091
     42 C         2.469241   1.593908   1.195838 C.3        1 UNL1     0.0661
     43 C         9.010343   -0.330782   -4.239135 C.2        1 UNL1     0.2131
     44 O         9.811015   -0.769335   -5.044947 O.2        1 UNL1     -0.2851
     45 O         8.924216   1.091254   -6.654767 O.3        1 UNL1     -0.5056
     46 O         4.062586   1.510581   -2.357583 O.2        1 UNL1     -0.2836
     47 C         3.997394   3.751363   1.553535 C.3        1 UNL1     -0.0566
     48 O         2.523364   1.584469   2.677761 O.3        1 UNL1     -0.3909
     49 C         0.188877   0.164147   1.030049 C.3        1 UNL1     -0.0577
     50 O         0.30099   3.286749   -0.768981 O.3        1 UNL1     -0.3910
     51 O         -1.237341   2.724615   -3.101875 O.3        1 UNL1     -0.3753
     52 C         0.314227   -0.490252   -1.935111 C.3        1 UNL1     -0.0564
     53 O         -2.583634   -0.439043   -0.414533 O.3        1 UNL1     -0.4608
     54 C         -2.896819   -0.440493   0.919574 C.2        1 UNL1     0.3042
     55 O         -2.232884   -0.911649   1.842093 O.2        1 UNL1     -0.2512
     56 C         -4.178559   0.275724   1.237205 C.3        1 UNL1     0.0332
     57 C         -2.797877   3.192221   -1.129451 C.3        1 UNL1     -0.0567
     58 C         2.908249   0.647544   -5.320648 C.3        1 UNL1     0.0210
     59 C         -2.316429   3.067877   -3.969979 C.3        1 UNL1     0.0372
     60 C         0.791112   1.705677   -3.61176 C.2        1 UNL1     -0.0208
     61 C         1.471998   2.847402   -3.719474 C.2        1 UNL1     0.0882
     62 H         3.939245   2.439213   -0.137381 H        1 UNL1     0.0365
     63 H         5.919183   2.23201   -0.592507 H        1 UNL1     0.0576
     64 H         7.568808   1.525278   1.912696 H        1 UNL1     0.0615
     65 H         8.303509   1.793457   -1.111564 H        1 UNL1     0.0622
     66 H         -1.069815   1.077365   -4.291696 H        1 UNL1     0.0645
     67 H         -1.501076   -0.43133   -2.86409 H        1 UNL1     0.0362
     68 H         -2.932161   0.875119   -1.833964 H        1 UNL1     0.0741
     69 H         -2.512786   2.036402   0.511657 H        1 UNL1     0.0359
     70 H         -0.743867   3.336203   0.937041 H        1 UNL1     0.0600
     71 H         0.304231   1.87116   2.145283 H        1 UNL1     0.0348
     72 H         2.189242   2.568111   0.769406 H        1 UNL1     0.0602
     73 H         1.262141   0.782983   -3.844177 H        1 UNL1     0.0628
     74 H         1.080234   3.827302   -3.444603 H        1 UNL1     0.1022
     75 H         11.758764   1.096543   1.034058 H        1 UNL1     0.0279
     76 H         10.807331   -0.237395   1.552405 H        1 UNL1     0.0279
     77 H         11.798089   -0.299749   0.039194 H        1 UNL1     0.0279
     78 H         10.171217   -1.367094   -1.346803 H        1 UNL1     0.1553
     79 H         8.534726   -1.602012   -0.254587 H        1 UNL1     0.1484
     80 H         4.974823   -2.853995   -0.700816 H        1 UNL1     0.0317
     81 H         6.156621   -2.865929   -2.002022 H        1 UNL1     0.0317
     82 H         7.974921   -3.567641   -0.422436 H        1 UNL1     0.0428
     83 H         6.622557   -4.677911   -0.43317 H        1 UNL1     0.0428
     84 H         6.778039   -1.897729   2.783902 H        1 UNL1     0.0428
     85 H         8.077813   -1.829388   1.645904 H        1 UNL1     0.0428
     86 H         6.253471   -0.148171   1.381074 H        1 UNL1     0.0317
     87 H         5.05784   -1.337092   1.137587 H        1 UNL1     0.0317
     88 H         6.721882   -4.500326   3.05362 H        1 UNL1     0.0429
     89 H         7.137305   -5.470746   1.63872 H        1 UNL1     0.0429
     90 H         8.837879   -3.686081   3.360885 H        1 UNL1     0.0308
     91 H         9.32006   -6.193839   1.665212 H        1 UNL1     0.0233
     92 H         10.633319   -5.314849   2.488756 H        1 UNL1     0.0233
     93 H         9.358973   -6.071956   3.420117 H        1 UNL1     0.0233
     94 H         9.926288   -3.835226   0.631185 H        1 UNL1     0.0233
     95 H         8.524438   -2.770815   0.821382 H        1 UNL1     0.0233
     96 H         9.975491   -2.515392   1.817974 H        1 UNL1     0.0233
     97 H         7.105569   3.171119   -7.940408 H        1 UNL1     0.0280
     98 H         6.661751   1.564638   -8.449751 H        1 UNL1     0.0280
     99 H         5.409649   2.669739   -7.808873 H        1 UNL1     0.0280
     100 H         8.961937   0.343033   -7.224298 H        1 UNL1     0.2922
     101 H         2.952628   4.054925   1.490537 H        1 UNL1     0.0236
     102 H         4.666268   4.495782   1.122916 H        1 UNL1     0.0236
     103 H         4.226318   3.758424   2.632302 H        1 UNL1     0.0236
     104 H         3.435198   1.817245   2.941098 H        1 UNL1     0.2098
     105 H         0.934585   -0.558883   1.350921 H        1 UNL1     0.0234
     106 H         -0.769839   -0.046385   1.503828 H        1 UNL1     0.0234
     107 H         -0.0   0.0   0.0 H        1 UNL1     0.0234
     108 H         -0.342511   3.599671   -1.433628 H        1 UNL1     0.2098
     109 H         0.732124   -1.003932   -2.812156 H        1 UNL1     0.0234
     110 H         1.096217   0.105846   -1.452512 H        1 UNL1     0.0234
     111 H         0.093214   -1.280395   -1.205197 H        1 UNL1     0.0234
     112 H         -4.946003   0.007746   0.504701 H        1 UNL1     0.0342
     113 H         -4.519534   0.074613   2.251667 H        1 UNL1     0.0342
     114 H         -3.997256   1.356253   1.155039 H        1 UNL1     0.0342
     115 H         -2.914768   4.102082   -0.524737 H        1 UNL1     0.0234
     116 H         -2.407267   3.493283   -2.103532 H        1 UNL1     0.0234
     117 H         -3.850444   2.888818   -1.263585 H        1 UNL1     0.0234
     118 H         2.738934   0.739561   -6.407787 H        1 UNL1     0.0309
     119 H         3.514516   -0.24298   -5.126714 H        1 UNL1     0.0309
     120 H         1.909992   0.4263   -4.927405 H        1 UNL1     0.0309
     121 H         -2.349527   4.154717   -4.040973 H        1 UNL1     0.0524
     122 H         -2.174945   2.672746   -4.98973 H        1 UNL1     0.0524
     123 H         -3.253802   2.689514   -3.572151 H        1 UNL1     0.0524
@<TRIPOS>BOND
     1     1     2    1
     2     1    42    1
     3     2     3    2
     4     3     4    1
     5     4     5    2
     6     5     7    1
     7     6    75    1
     8     6    76    1
     9     6    77    1
    10     7     9   am
    11     9    10    1
    12    10    11    2
    13    10    43    1
    14    11    14    1
    15    11    15    1
    16    12    13   ar
    17    12    27   ar
    18    12    43    1
    19    13    14    1
    20    13    30   ar
    21    14    17    2
    22    15    16    1
    23    16    17    1
    24    16    18    1
    25    16    22    1
    26    18    19    1
    27    19    20    1
    28    20    21    1
    29    21    22    1
    30    23    24    1
    31    23    88    1
    32    23    89    1
    33    24    25    1
    34    24    26    1
    35    24    90    1
    36    25    91    1
    37    25    92    1
    38    25    93    1
    39    26    94    1
    40    26    95    1
    41    26    96    1
    42    27    28   ar
    43    28    29   ar
    44    29    30   ar
    45    29    31    1
    46    30    33    1
    47    31    32    1
    48    32    33    1
    49    32    35    1
    50    34    97    1
    51    34    98    1
    52    34    99    1
    53    35    61    1
    54    36    37    1
    55    36    60    1
    56    37    38    1
    57    38    39    1
    58    39    40    1
    59    40    41    1
    60    41    42    1
    61    45   100    1
    62    47   101    1
    63    47   102    1
    64    47   103    1
    65    48   104    1
    66    49   105    1
    67    49   106    1
    68    49   107    1
    69    50   108    1
    70    51    59    1
    71    52   109    1
    72    52   110    1
    73    52   111    1
    74    53    54    1
    75    54    55    2
    76    54    56    1
    77    56   112    1
    78    56   113    1
    79    56   114    1
    80    57   115    1
    81    57   116    1
    82    57   117    1
    83    58   118    1
    84    58   119    1
    85    58   120    1
    86    59   121    1
    87    59   122    1
    88    59   123    1
    89    60    61    2
    90     1    47    1
    91     1    62    1
    92     2    63    1
    93     3    64    1
    94     4    65    1
    95     5     6    1
    96     7     8    2
    97     9    78    1
    98    15    79    1
    99    18    80    1
   100    18    81    1
   101    19    82    1
   102    19    83    1
   103    20    23    1
   104    21    84    1
   105    21    85    1
   106    22    86    1
   107    22    87    1
   108    27    45    1
   109    28    34    1
   110    32    58    1
   111    33    46    2
   112    36    51    1
   113    36    66    1
   114    37    52    1
   115    37    67    1
   116    38    53    1
   117    38    68    1
   118    42    48    1
   119    42    72    1
   120    43    44    2
   121    60    73    1
   122    61    74    1
   123    39    69    1
   124    39    57    1
   125    40    70    1
   126    40    50    1
   127    41    71    1
   128    41    49    1
