@<TRIPOS>MOLECULE
*****
 123 128 0 0 0
SMALL
GASTEIGER

@<TRIPOS>ATOM
     1 C         5.040039   2.050334   0.637095 C.3        1 UNL1     0.0009
     2 C         6.42608   2.989663   -0.158889 C.2        1 UNL1     -0.0787
     3 C         7.720769   3.009501   -0.806525 C.2        1 UNL1     -0.0649
     4 C         8.516673   4.332553   -1.501094 C.2        1 UNL1     -0.0542
     5 C         9.525646   4.733521   -2.411192 C.2        1 UNL1     0.0115
     6 C         10.708072   4.224444   -3.280692 C.3        1 UNL1     -0.0348
     7 C         9.521521   6.241903   -2.960513 C.2        1 UNL1     0.2441
     8 O         10.278354   7.105653   -2.539008 O.2        1 UNL1     -0.2702
     9 N         8.774494   6.43898   -4.134933 N.am        1 UNL1     -0.2772
     10 C         7.462905   6.720079   -3.828275 C.2        1 UNL1     0.1049
     11 C         6.68585   5.679874   -3.586653 C.2        1 UNL1     0.0801
     12 C         6.032063   8.174005   -2.380474 C.ar        1 UNL1     0.0753
     13 C         5.350703   6.978108   -1.987807 C.ar        1 UNL1     0.0305
     14 C         5.570918   5.709849   -2.679236 C.2        1 UNL1     0.0924
     15 N         6.906715   4.370223   -3.792958 N.pl3        1 UNL1     -0.3170
     16 C         5.67944   3.66966   -3.522292 C.3        1 UNL1     0.1275
     17 N         4.961974   4.538446   -2.518212 N.2        1 UNL1     -0.2557
     18 C         4.842075   3.715504   -4.796819 C.3        1 UNL1     0.0016
     19 C         5.660086   3.131171   -5.937434 C.3        1 UNL1     0.0026
     20 N         6.024113   1.76233   -5.598628 N.3        1 UNL1     -0.3018
     21 C         6.779915   1.609992   -4.353668 C.3        1 UNL1     0.0026
     22 C         5.937743   2.199306   -3.220817 C.3        1 UNL1     0.0016
     23 C         6.542158   1.019946   -6.730501 C.3        1 UNL1     0.0012
     24 C         5.421513   0.725726   -7.740128 C.3        1 UNL1     -0.0339
     25 C         5.626812   1.503284   -9.050591 C.3        1 UNL1     -0.0615
     26 C         5.322379   -0.769596   -7.987037 C.3        1 UNL1     -0.0615
     27 C         5.728574   9.402118   -1.797592 C.ar        1 UNL1     0.1347
     28 C         4.739336   9.565045   -0.844223 C.ar        1 UNL1     0.0342
     29 C         4.11561   8.366278   -0.437912 C.ar        1 UNL1     0.1435
     30 C         4.434408   7.123636   -0.986936 C.ar        1 UNL1     0.0774
     31 O         3.057445   8.371922   0.401886 O.3        1 UNL1     -0.4436
     32 C         2.429109   7.096713   0.202119 C.3        1 UNL1     0.3143
     33 C         3.519008   6.200171   -0.349737 C.2        1 UNL1     0.2504
     34 C         4.188559   10.877601   -0.360548 C.3        1 UNL1     -0.0327
     35 O         2.082967   6.585177   1.495088 O.2        1 UNL1     -0.4528
     36 C         -1.005625   4.441245   0.97332 C.3        1 UNL1     0.0854
     37 C         -1.206294   3.197202   0.024841 C.3        1 UNL1     0.0236
     38 C         -1.724624   1.867008   0.755362 C.3        1 UNL1     0.1131
     39 C         -0.980293   1.340291   2.047961 C.3        1 UNL1     0.0200
     40 C         0.686354   1.313182   2.111135 C.3        1 UNL1     0.0661
     41 C         1.714987   0.660633   0.930582 C.3        1 UNL1     0.0091
     42 C         3.3994   1.166417   0.408722 C.3        1 UNL1     0.0661
     43 C         7.010038   8.078216   -3.492521 C.2        1 UNL1     0.2131
     44 O         7.353609   9.029556   -4.170495 O.2        1 UNL1     -0.2851
     45 O         6.469879   10.50976   -2.203837 O.3        1 UNL1     -0.5056
     46 O         3.620435   4.996789   -0.263505 O.2        1 UNL1     -0.2836
     47 C         5.44663   1.595811   2.064706 C.3        1 UNL1     -0.0566
     48 O         3.94795   -0.210849   0.445442 O.3        1 UNL1     -0.3909
     49 C         0.917046   0.416207   -0.330783 C.3        1 UNL1     -0.0577
     50 O         1.191173   2.555161   2.558761 O.3        1 UNL1     -0.3910
     51 O         -1.134809   4.190071   2.354499 O.3        1 UNL1     -0.3753
     52 C         -0.137156   3.156481   -1.115437 C.3        1 UNL1     -0.0564
     53 O         -2.237822   0.822526   -0.192272 O.3        1 UNL1     -0.4608
     54 C         -2.378614   -0.510256   0.093732 C.2        1 UNL1     0.3042
     55 O         -1.686889   -1.439988   -0.319733 O.2        1 UNL1     -0.2512
     56 C         -3.482708   -0.802575   1.06956 C.3        1 UNL1     0.0332
     57 C         -1.765265   1.90696   3.321099 C.3        1 UNL1     -0.0567
     58 C         1.354024   7.305079   -0.889809 C.3        1 UNL1     0.0210
     59 C         -2.321596   4.712099   2.950224 C.3        1 UNL1     0.0372
     60 C         0.277303   5.172675   0.788207 C.2        1 UNL1     -0.0208
     61 C         1.144194   5.638908   1.688135 C.2        1 UNL1     0.0882
     62 H         4.49284   2.993656   0.752977 H        1 UNL1     0.0365
     63 H         6.082684   4.016776   -0.018937 H        1 UNL1     0.0576
     64 H         8.25034   2.087245   -1.055734 H        1 UNL1     0.0615
     65 H         7.959752   5.196602   -1.128614 H        1 UNL1     0.0622
     66 H         -1.798105   5.143573   0.678777 H        1 UNL1     0.0645
     67 H         -2.083488   3.466633   -0.588754 H        1 UNL1     0.0362
     68 H         -2.705643   2.220844   1.107392 H        1 UNL1     0.0741
     69 H         -1.24028   0.301232   2.200182 H        1 UNL1     0.0359
     70 H         0.833563   0.629402   2.968942 H        1 UNL1     0.0600
     71 H         1.82662   -0.370323   1.319973 H        1 UNL1     0.0348
     72 H         3.244896   1.60793   1.403966 H        1 UNL1     0.0602
     73 H         0.394862   5.417376   -0.238219 H        1 UNL1     0.0628
     74 H         1.127225   5.386785   2.748976 H        1 UNL1     0.1022
     75 H         10.780812   3.111243   -3.230408 H        1 UNL1     0.0279
     76 H         10.636992   4.406463   -4.350685 H        1 UNL1     0.0279
     77 H         11.688583   4.52398   -2.882474 H        1 UNL1     0.0279
     78 H         8.782985   5.587523   -4.692632 H        1 UNL1     0.1553
     79 H         7.609719   4.015121   -4.414746 H        1 UNL1     0.1484
     80 H         3.916343   3.149619   -4.636945 H        1 UNL1     0.0317
     81 H         4.544636   4.742866   -5.032847 H        1 UNL1     0.0317
     82 H         6.553099   3.737145   -6.150123 H        1 UNL1     0.0428
     83 H         5.044933   3.175238   -6.836709 H        1 UNL1     0.0428
     84 H         6.971279   0.567346   -4.081491 H        1 UNL1     0.0428
     85 H         7.781938   2.054883   -4.426729 H        1 UNL1     0.0428
     86 H         6.458396   1.95222   -2.314254 H        1 UNL1     0.0317
     87 H         4.993884   1.648007   -3.129736 H        1 UNL1     0.0317
     88 H         7.304027   1.637372   -7.224097 H        1 UNL1     0.0429
     89 H         7.037323   0.095028   -6.407836 H        1 UNL1     0.0429
     90 H         4.459501   1.021945   -7.305388 H        1 UNL1     0.0308
     91 H         6.661542   1.430108   -9.398557 H        1 UNL1     0.0233
     92 H         4.958967   1.129477   -9.830245 H        1 UNL1     0.0233
     93 H         5.402478   2.571329   -8.942009 H        1 UNL1     0.0233
     94 H         4.83091   -0.962163   -8.946835 H        1 UNL1     0.0233
     95 H         6.323077   -1.208915   -8.026575 H        1 UNL1     0.0233
     96 H         4.749385   -1.266966   -7.199464 H        1 UNL1     0.0233
     97 H         3.337227   10.743588   0.300137 H        1 UNL1     0.0280
     98 H         4.928089   11.449999   0.214528 H        1 UNL1     0.0280
     99 H         3.864548   11.482283   -1.223376 H        1 UNL1     0.0280
     100 H         7.401937   10.379851   -2.200103 H        1 UNL1     0.2922
     101 H         4.553437   1.372545   2.647814 H        1 UNL1     0.0236
     102 H         6.098758   2.306461   2.571352 H        1 UNL1     0.0236
     103 H         6.015994   0.651426   2.05221 H        1 UNL1     0.0236
     104 H         4.284859   -0.370161   1.348815 H        1 UNL1     0.2098
     105 H         0.68897   1.314454   -0.899066 H        1 UNL1     0.0234
     106 H         1.326163   -0.352099   -0.986722 H        1 UNL1     0.0234
     107 H         0.0   -0.0   0.0 H        1 UNL1     0.0234
     108 H         1.092544   3.190373   1.823542 H        1 UNL1     0.2098
     109 H         -0.183694   4.044477   -1.7612 H        1 UNL1     0.0234
     110 H         0.884755   3.027513   -0.742866 H        1 UNL1     0.0234
     111 H         -0.288234   2.296444   -1.781364 H        1 UNL1     0.0234
     112 H         -4.060638   -1.667291   0.729548 H        1 UNL1     0.0342
     113 H         -3.106297   -0.956923   2.079677 H        1 UNL1     0.0342
     114 H         -4.157057   0.064487   1.094489 H        1 UNL1     0.0342
     115 H         -2.83936   1.680789   3.272589 H        1 UNL1     0.0234
     116 H         -1.393174   1.530233   4.275915 H        1 UNL1     0.0234
     117 H         -1.78173   3.00922   3.372993 H        1 UNL1     0.0234
     118 H         0.330292   7.215191   -0.4862 H        1 UNL1     0.0309
     119 H         1.450791   8.262908   -1.410772 H        1 UNL1     0.0309
     120 H         1.388157   6.532867   -1.666101 H        1 UNL1     0.0309
     121 H         -2.114771   4.877162   4.007264 H        1 UNL1     0.0524
     122 H         -2.61708   5.681062   2.51452 H        1 UNL1     0.0524
     123 H         -3.141208   4.008657   2.834041 H        1 UNL1     0.0524
@<TRIPOS>BOND
     1     1     2    1
     2     1    42    1
     3     2     3    2
     4     3     4    1
     5     4     5    2
     6     5     7    1
     7     6    75    1
     8     6    76    1
     9     6    77    1
    10     7     9   am
    11     9    10    1
    12    10    11    2
    13    10    43    1
    14    11    14    1
    15    11    15    1
    16    12    13   ar
    17    12    27   ar
    18    12    43    1
    19    13    14    1
    20    13    30   ar
    21    14    17    2
    22    15    16    1
    23    16    17    1
    24    16    18    1
    25    16    22    1
    26    18    19    1
    27    19    20    1
    28    20    21    1
    29    21    22    1
    30    23    24    1
    31    23    88    1
    32    23    89    1
    33    24    25    1
    34    24    26    1
    35    24    90    1
    36    25    91    1
    37    25    92    1
    38    25    93    1
    39    26    94    1
    40    26    95    1
    41    26    96    1
    42    27    28   ar
    43    28    29   ar
    44    29    30   ar
    45    29    31    1
    46    30    33    1
    47    31    32    1
    48    32    33    1
    49    32    35    1
    50    34    97    1
    51    34    98    1
    52    34    99    1
    53    35    61    1
    54    36    37    1
    55    36    60    1
    56    37    38    1
    57    38    39    1
    58    39    40    1
    59    40    41    1
    60    41    42    1
    61    45   100    1
    62    47   101    1
    63    47   102    1
    64    47   103    1
    65    48   104    1
    66    49   105    1
    67    49   106    1
    68    49   107    1
    69    50   108    1
    70    51    59    1
    71    52   109    1
    72    52   110    1
    73    52   111    1
    74    53    54    1
    75    54    55    2
    76    54    56    1
    77    56   112    1
    78    56   113    1
    79    56   114    1
    80    57   115    1
    81    57   116    1
    82    57   117    1
    83    58   118    1
    84    58   119    1
    85    58   120    1
    86    59   121    1
    87    59   122    1
    88    59   123    1
    89    60    61    2
    90     1    47    1
    91     1    62    1
    92     2    63    1
    93     3    64    1
    94     4    65    1
    95     5     6    1
    96     7     8    2
    97     9    78    1
    98    15    79    1
    99    18    80    1
   100    18    81    1
   101    19    82    1
   102    19    83    1
   103    20    23    1
   104    21    84    1
   105    21    85    1
   106    22    86    1
   107    22    87    1
   108    27    45    1
   109    28    34    1
   110    32    58    1
   111    33    46    2
   112    36    51    1
   113    36    66    1
   114    37    52    1
   115    37    67    1
   116    38    53    1
   117    38    68    1
   118    42    48    1
   119    42    72    1
   120    43    44    2
   121    60    73    1
   122    61    74    1
   123    39    69    1
   124    39    57    1
   125    40    70    1
   126    40    50    1
   127    41    71    1
   128    41    49    1
