@<TRIPOS>MOLECULE
*****
 123 128 0 0 0
SMALL
GASTEIGER

@<TRIPOS>ATOM
     1 C         5.027221   2.034547   0.774225 C.3        1 UNL1     0.0009
     2 C         6.495036   2.84111   -0.020767 C.2        1 UNL1     -0.0787
     3 C         7.836213   2.75657   -0.559416 C.2        1 UNL1     -0.0649
     4 C         8.718041   3.966114   -1.350453 C.2        1 UNL1     -0.0542
     5 C         9.804835   4.230192   -2.220062 C.2        1 UNL1     0.0115
     6 C         11.037525   3.594404   -2.919755 C.3        1 UNL1     -0.0348
     7 C         9.882893   5.655013   -2.955439 C.2        1 UNL1     0.2441
     8 O         10.627028   6.553697   -2.587806 O.2        1 UNL1     -0.2702
     9 N         9.234804   5.710911   -4.201637 N.am        1 UNL1     -0.2772
     10 C         7.911159   6.050137   -4.03974 C.2        1 UNL1     0.1049
     11 C         7.090719   5.06233   -3.730972 C.2        1 UNL1     0.0801
     12 C         6.41068   7.701309   -2.908577 C.ar        1 UNL1     0.0753
     13 C         5.669799   6.577079   -2.422973 C.ar        1 UNL1     0.0305
     14 C         5.90981   5.226889   -2.927386 C.2        1 UNL1     0.0924
     15 N         7.292594   3.733649   -3.75047 N.pl3        1 UNL1     -0.3170
     16 C         6.030082   3.093546   -3.492429 C.3        1 UNL1     0.1275
     17 N         5.259743   4.095916   -2.668077 N.2        1 UNL1     -0.2557
     18 C         5.295783   2.988028   -4.82561 C.3        1 UNL1     0.0016
     19 C         6.184383   2.248485   -5.813059 C.3        1 UNL1     0.0026
     20 N         6.485027   0.929123   -5.274612 N.3        1 UNL1     -0.3018
     21 C         7.13755   0.92654   -3.963667 C.3        1 UNL1     0.0026
     22 C         6.225604   1.670407   -2.986471 C.3        1 UNL1     0.0016
     23 C         7.069857   0.038791   -6.257427 C.3        1 UNL1     0.0012
     24 C         6.023744   -0.365219   -7.308227 C.3        1 UNL1     -0.0339
     25 C         6.248932   -1.803902   -7.801726 C.3        1 UNL1     -0.0615
     26 C         4.624273   -0.178936   -6.748263 C.3        1 UNL1     -0.0615
     27 C         6.095061   8.999026   -2.513062 C.ar        1 UNL1     0.1347
     28 C         5.039331   9.299326   -1.67086 C.ar        1 UNL1     0.0342
     29 C         4.354755   8.173089   -1.166767 C.ar        1 UNL1     0.1435
     30 C         4.682621   6.865087   -1.52573 C.ar        1 UNL1     0.0774
     31 O         3.23504   8.303896   -0.422366 O.3        1 UNL1     -0.4436
     32 C         2.590967   7.023781   -0.508084 C.3        1 UNL1     0.3143
     33 C         3.696616   6.046255   -0.85188 C.2        1 UNL1     0.2504
     34 C         4.487177   10.67193   -1.404057 C.3        1 UNL1     -0.0327
     35 O         2.132124   6.688851   0.807415 O.2        1 UNL1     -0.4528
     36 C         -0.961633   4.545179   0.316066 C.3        1 UNL1     0.0854
     37 C         -1.12048   3.19258   -0.4794 C.3        1 UNL1     0.0236
     38 C         -1.72865   1.976153   0.370413 C.3        1 UNL1     0.1131
     39 C         -1.101061   1.608693   1.775181 C.3        1 UNL1     0.0200
     40 C         0.554354   1.563321   1.97513 C.3        1 UNL1     0.0661
     41 C         1.654186   0.747624   0.973821 C.3        1 UNL1     0.0091
     42 C         3.386719   1.154898   0.529008 C.3        1 UNL1     0.0661
     43 C         7.469273   7.447295   -3.9171 C.2        1 UNL1     0.2131
     44 O         7.889273   8.297649   -4.680798 O.2        1 UNL1     -0.2851
     45 O         6.89443   10.03304   -2.996035 O.3        1 UNL1     -0.5056
     46 O         3.759503   4.862574   -0.605307 O.2        1 UNL1     -0.2836
     47 C         5.309605   1.761477   2.276115 C.3        1 UNL1     -0.0566
     48 O         3.89452   -0.214723   0.784725 O.3        1 UNL1     -0.3909
     49 C         0.950557   0.355364   -0.306231 C.3        1 UNL1     -0.0577
     50 O         1.055195   2.844424   2.300176 O.3        1 UNL1     -0.3910
     51 O         -1.204289   4.476311   1.703079 O.3        1 UNL1     -0.3753
     52 C         0.032604   2.988069   -1.515508 C.3        1 UNL1     -0.0564
     53 O         -2.193816   0.826527   -0.474754 O.3        1 UNL1     -0.4608
     54 C         -2.326188   0.844757   -1.838599 C.2        1 UNL1     0.3042
     55 O         -3.366898   0.948684   -2.486644 O.2        1 UNL1     -0.2512
     56 C         -1.015946   0.783368   -2.570863 C.3        1 UNL1     0.0332
     57 C         -1.967494   2.347283   2.898548 C.3        1 UNL1     -0.0567
     58 C         1.609811   7.106754   -1.700551 C.3        1 UNL1     0.0210
     59 C         -0.274123   5.196227   2.510777 C.3        1 UNL1     0.0372
     60 C         0.350503   5.22603   0.14315 C.2        1 UNL1     -0.0208
     61 C         1.156744   5.790504   1.043199 C.2        1 UNL1     0.0882
     62 H         4.49755   2.993561   0.724711 H        1 UNL1     0.0365
     63 H         6.168804   3.883052   -0.040759 H        1 UNL1     0.0576
     64 H         8.359228   1.801531   -0.645809 H        1 UNL1     0.0615
     65 H         8.156665   4.879772   -1.136987 H        1 UNL1     0.0622
     66 H         -1.710173   5.216237   -0.128249 H        1 UNL1     0.0645
     67 H         -1.939985   3.394621   -1.190843 H        1 UNL1     0.0362
     68 H         -2.72446   2.388066   0.594492 H        1 UNL1     0.0741
     69 H         -1.399197   0.602229   2.037008 H        1 UNL1     0.0359
     70 H         0.616509   0.993604   2.92203 H        1 UNL1     0.0600
     71 H         1.708199   -0.226162   1.498971 H        1 UNL1     0.0348
     72 H         3.16695   1.72348   1.444284 H        1 UNL1     0.0602
     73 H         0.553836   5.334414   -0.893266 H        1 UNL1     0.0628
     74 H         1.050794   5.677592   2.122673 H        1 UNL1     0.1022
     75 H         11.635073   2.994157   -2.191968 H        1 UNL1     0.0279
     76 H         10.830045   2.871238   -3.705282 H        1 UNL1     0.0279
     77 H         11.776459   4.342623   -3.242006 H        1 UNL1     0.0279
     78 H         9.264322   4.794619   -4.643922 H        1 UNL1     0.1553
     79 H         8.032256   3.290137   -4.263432 H        1 UNL1     0.1484
     80 H         4.345933   2.462354   -4.669987 H        1 UNL1     0.0317
     81 H         5.044576   3.980996   -5.213631 H        1 UNL1     0.0317
     82 H         7.106777   2.80762   -6.028628 H        1 UNL1     0.0428
     83 H         5.642338   2.186045   -6.757166 H        1 UNL1     0.0428
     84 H         7.279829   -0.075226   -3.546494 H        1 UNL1     0.0428
     85 H         8.153521   1.342221   -4.01193 H        1 UNL1     0.0428
     86 H         6.667586   1.534   -2.016918 H        1 UNL1     0.0317
     87 H         5.263416   1.150614   -2.902171 H        1 UNL1     0.0317
     88 H         7.883678   0.575152   -6.762706 H        1 UNL1     0.0429
     89 H         7.514071   -0.844591   -5.780892 H        1 UNL1     0.0429
     90 H         6.09583   0.313572   -8.166283 H        1 UNL1     0.0308
     91 H         6.426478   -2.487742   -6.966296 H        1 UNL1     0.0233
     92 H         5.387951   -2.154668   -8.375558 H        1 UNL1     0.0233
     93 H         7.115209   -1.885624   -8.469349 H        1 UNL1     0.0233
     94 H         3.888756   -0.660117   -7.401957 H        1 UNL1     0.0233
     95 H         4.552175   -0.643016   -5.760643 H        1 UNL1     0.0233
     96 H         4.367495   0.880431   -6.660084 H        1 UNL1     0.0233
     97 H         4.558394   10.942916   -0.354903 H        1 UNL1     0.0280
     98 H         5.031774   11.451022   -1.953317 H        1 UNL1     0.0280
     99 H         3.42548   10.706284   -1.698533 H        1 UNL1     0.0280
     100 H         6.418443   10.757203   -3.362978 H        1 UNL1     0.2922
     101 H         4.776753   2.488575   2.888532 H        1 UNL1     0.0236
     102 H         6.372446   1.727684   2.513202 H        1 UNL1     0.0236
     103 H         4.918222   0.782574   2.599784 H        1 UNL1     0.0236
     104 H         4.19549   -0.581963   -0.069396 H        1 UNL1     0.2098
     105 H         0.790921   1.176357   -1.000708 H        1 UNL1     0.0234
     106 H         1.389161   -0.497554   -0.823999 H        1 UNL1     0.0234
     107 H         0.0   -0.0   0.0 H        1 UNL1     0.0234
     108 H         2.024138   2.815805   2.181439 H        1 UNL1     0.2098
     109 H         -0.203362   3.430808   -2.493268 H        1 UNL1     0.0234
     110 H         0.998492   3.367459   -1.164984 H        1 UNL1     0.0234
     111 H         0.219062   1.923224   -1.708601 H        1 UNL1     0.0234
     112 H         -1.190704   0.822693   -3.650335 H        1 UNL1     0.0342
     113 H         -0.333777   1.571836   -2.256528 H        1 UNL1     0.0342
     114 H         -0.539621   -0.179834   -2.341685 H        1 UNL1     0.0342
     115 H         -1.96641   1.791456   3.846305 H        1 UNL1     0.0234
     116 H         -1.638561   3.365667   3.114758 H        1 UNL1     0.0234
     117 H         -3.046999   2.37907   2.671388 H        1 UNL1     0.0234
     118 H         0.775285   6.390694   -1.601404 H        1 UNL1     0.0309
     119 H         1.203327   8.111556   -1.853348 H        1 UNL1     0.0309
     120 H         2.076485   6.820894   -2.649554 H        1 UNL1     0.0309
     121 H         -0.258052   4.726135   3.493687 H        1 UNL1     0.0524
     122 H         0.7509   5.154903   2.106233 H        1 UNL1     0.0524
     123 H         -0.577351   6.23577   2.597373 H        1 UNL1     0.0524
@<TRIPOS>BOND
     1     1     2    1
     2     1    42    1
     3     2     3    2
     4     3     4    1
     5     4     5    2
     6     5     7    1
     7     6    75    1
     8     6    76    1
     9     6    77    1
    10     7     9   am
    11     9    10    1
    12    10    11    2
    13    10    43    1
    14    11    14    1
    15    11    15    1
    16    12    13   ar
    17    12    27   ar
    18    12    43    1
    19    13    14    1
    20    13    30   ar
    21    14    17    2
    22    15    16    1
    23    16    17    1
    24    16    18    1
    25    16    22    1
    26    18    19    1
    27    19    20    1
    28    20    21    1
    29    21    22    1
    30    23    24    1
    31    23    88    1
    32    23    89    1
    33    24    25    1
    34    24    26    1
    35    24    90    1
    36    25    91    1
    37    25    92    1
    38    25    93    1
    39    26    94    1
    40    26    95    1
    41    26    96    1
    42    27    28   ar
    43    28    29   ar
    44    29    30   ar
    45    29    31    1
    46    30    33    1
    47    31    32    1
    48    32    33    1
    49    32    35    1
    50    34    97    1
    51    34    98    1
    52    34    99    1
    53    35    61    1
    54    36    37    1
    55    36    60    1
    56    37    38    1
    57    38    39    1
    58    39    40    1
    59    40    41    1
    60    41    42    1
    61    45   100    1
    62    47   101    1
    63    47   102    1
    64    47   103    1
    65    48   104    1
    66    49   105    1
    67    49   106    1
    68    49   107    1
    69    50   108    1
    70    51    59    1
    71    52   109    1
    72    52   110    1
    73    52   111    1
    74    53    54    1
    75    54    55    2
    76    54    56    1
    77    56   112    1
    78    56   113    1
    79    56   114    1
    80    57   115    1
    81    57   116    1
    82    57   117    1
    83    58   118    1
    84    58   119    1
    85    58   120    1
    86    59   121    1
    87    59   122    1
    88    59   123    1
    89    60    61    2
    90     1    47    1
    91     1    62    1
    92     2    63    1
    93     3    64    1
    94     4    65    1
    95     5     6    1
    96     7     8    2
    97     9    78    1
    98    15    79    1
    99    18    80    1
   100    18    81    1
   101    19    82    1
   102    19    83    1
   103    20    23    1
   104    21    84    1
   105    21    85    1
   106    22    86    1
   107    22    87    1
   108    27    45    1
   109    28    34    1
   110    32    58    1
   111    33    46    2
   112    36    51    1
   113    36    66    1
   114    37    52    1
   115    37    67    1
   116    38    53    1
   117    38    68    1
   118    42    48    1
   119    42    72    1
   120    43    44    2
   121    60    73    1
   122    61    74    1
   123    39    69    1
   124    39    57    1
   125    40    70    1
   126    40    50    1
   127    41    71    1
   128    41    49    1
