@<TRIPOS>MOLECULE
*****
 123 128 0 0 0
SMALL
GASTEIGER

@<TRIPOS>ATOM
     1 C         4.326476   2.362095   -2.387758 C.3        1 UNL1     0.0009
     2 C         5.830995   2.1053   -3.440143 C.2        1 UNL1     -0.0787
     3 C         7.264659   1.946616   -3.564537 C.2        1 UNL1     -0.0649
     4 C         8.154427   1.584391   -4.958618 C.2        1 UNL1     -0.0542
     5 C         9.383943   1.084412   -5.453986 C.2        1 UNL1     0.0115
     6 C         10.826924   0.673321   -5.051329 C.3        1 UNL1     -0.0348
     7 C         9.461605   0.583121   -6.97703 C.2        1 UNL1     0.2441
     8 O         9.962709   1.249546   -7.872183 O.2        1 UNL1     -0.2702
     9 N         9.153455   -0.775308   -7.166418 N.am        1 UNL1     -0.2772
     10 C         7.80005   -0.939242   -7.352813 C.2        1 UNL1     0.1049
     11 C         7.063914   -0.992462   -6.257599 C.2        1 UNL1     0.0801
     12 C         5.85748   -0.062131   -8.662177 C.ar        1 UNL1     0.0753
     13 C         5.169947   0.057897   -7.412577 C.ar        1 UNL1     0.0305
     14 C         5.705313   -0.52731   -6.185398 C.2        1 UNL1     0.0924
     15 N         7.435516   -1.122821   -4.972513 N.pl3        1 UNL1     -0.3170
     16 C         6.243695   -1.301326   -4.186414 C.3        1 UNL1     0.1275
     17 N         5.163702   -0.599223   -4.972792 N.2        1 UNL1     -0.2557
     18 C         5.896354   -2.7865   -4.222658 C.3        1 UNL1     0.0016
     19 C         7.097182   -3.578931   -3.731075 C.3        1 UNL1     0.0026
     20 N         7.418978   -3.148977   -2.377333 N.3        1 UNL1     -0.3018
     21 C         7.707806   -1.720885   -2.230702 C.3        1 UNL1     0.0026
     22 C         6.486687   -0.944057   -2.725982 C.3        1 UNL1     0.0016
     23 C         8.347367   -4.038756   -1.708731 C.3        1 UNL1     0.0012
     24 C         7.667871   -5.377079   -1.37868 C.3        1 UNL1     -0.0339
     25 C         8.022873   -6.458113   -2.412795 C.3        1 UNL1     -0.0615
     26 C         8.030178   -5.811423   0.03088 C.3        1 UNL1     -0.0615
     27 C         5.284494   0.391996   -9.847746 C.ar        1 UNL1     0.1347
     28 C         4.018162   0.945159   -9.914566 C.ar        1 UNL1     0.0342
     29 C         3.380068   1.097925   -8.665301 C.ar        1 UNL1     0.1435
     30 C         3.956744   0.680713   -7.465051 C.ar        1 UNL1     0.0774
     31 O         2.09966   1.519071   -8.574767 O.3        1 UNL1     -0.4436
     32 C         1.671778   1.100957   -7.269788 C.3        1 UNL1     0.3143
     33 C         2.946329   0.9518   -6.463882 C.2        1 UNL1     0.2504
     34 C         3.241916   1.22141   -11.172035 C.3        1 UNL1     -0.0327
     35 O         0.938451   2.188604   -6.693152 O.2        1 UNL1     -0.4528
     36 C         -1.618727   0.607135   -4.376283 C.3        1 UNL1     0.0854
     37 C         -1.390334   -0.364769   -3.155315 C.3        1 UNL1     0.0236
     38 C         -2.032212   0.127282   -1.770533 C.3        1 UNL1     0.1131
     39 C         -1.743757   1.592262   -1.248136 C.3        1 UNL1     0.0200
     40 C         -0.203801   2.228716   -1.324947 C.3        1 UNL1     0.0661
     41 C         1.212806   1.471105   -0.780097 C.3        1 UNL1     0.0091
     42 C         2.933046   1.570395   -1.409635 C.3        1 UNL1     0.0661
     43 C         7.163199   -0.767351   -8.667054 C.2        1 UNL1     0.2131
     44 O         7.65051   -1.274533   -9.661051 O.2        1 UNL1     -0.2851
     45 O         6.039128   0.279101   -11.013601 O.3        1 UNL1     -0.5056
     46 O         3.097638   1.055542   -5.267138 O.2        1 UNL1     -0.2836
     47 C         4.247105   3.837431   -1.911243 C.3        1 UNL1     -0.0566
     48 O         3.532339   1.780841   -0.069606 O.3        1 UNL1     -0.3909
     49 C         0.918596   0.008974   -0.528886 C.3        1 UNL1     -0.0577
     50 O         0.025366   2.836183   -2.58041 O.3        1 UNL1     -0.3910
     51 O         -2.198066   1.855354   -4.070099 O.3        1 UNL1     -0.3753
     52 C         0.0065   -1.06432   -3.221885 C.3        1 UNL1     -0.0564
     53 O         -2.110887   -0.95008   -0.728694 O.3        1 UNL1     -0.4608
     54 C         -2.249004   -0.744266   0.61908 C.2        1 UNL1     0.3042
     55 O         -1.416239   -0.964948   1.497511 O.2        1 UNL1     -0.2512
     56 C         -3.564186   -0.127242   1.001559 C.3        1 UNL1     0.0332
     57 C         -2.958111   2.520267   -1.719651 C.3        1 UNL1     -0.0567
     58 C         1.027339   -0.293646   -7.446733 C.3        1 UNL1     0.0210
     59 C         -2.92881   2.455286   -5.138724 C.3        1 UNL1     0.0372
     60 C         -0.40654   0.885487   -5.193769 C.2        1 UNL1     -0.0208
     61 C         0.060996   2.034747   -5.68301 C.2        1 UNL1     0.0882
     62 H         3.706868   2.290826   -3.289821 H        1 UNL1     0.0365
     63 H         5.387826   2.12808   -4.437917 H        1 UNL1     0.0576
     64 H         7.912249   1.886931   -2.686943 H        1 UNL1     0.0615
     65 H         7.442886   1.749632   -5.772183 H        1 UNL1     0.0622
     66 H         -2.309075   0.06344   -5.036481 H        1 UNL1     0.0645
     67 H         -2.01893   -1.241506   -3.389321 H        1 UNL1     0.0362
     68 H         -3.097093   0.121187   -2.048945 H        1 UNL1     0.0741
     69 H         -1.965216   1.634353   -0.190028 H        1 UNL1     0.0359
     70 H         -0.312975   3.077363   -0.62285 H        1 UNL1     0.0600
     71 H         1.256757   1.864506   0.254437 H        1 UNL1     0.0348
     72 H         2.413555   2.454906   -1.805973 H        1 UNL1     0.0602
     73 H         0.040016   -0.034068   -5.48057 H        1 UNL1     0.0628
     74 H         -0.302758   3.02136   -5.394022 H        1 UNL1     0.1022
     75 H         10.972766   0.782937   -3.949626 H        1 UNL1     0.0279
     76 H         11.100813   -0.365445   -5.221681 H        1 UNL1     0.0279
     77 H         11.589944   1.363158   -5.440722 H        1 UNL1     0.0279
     78 H         9.41471   -1.304179   -6.336889 H        1 UNL1     0.1553
     79 H         8.333344   -1.4661   -4.684421 H        1 UNL1     0.1484
     80 H         5.015321   -2.963071   -3.593873 H        1 UNL1     0.0317
     81 H         5.625865   -3.100463   -5.236519 H        1 UNL1     0.0317
     82 H         7.96294   -3.462827   -4.399577 H        1 UNL1     0.0428
     83 H         6.828497   -4.635142   -3.76679 H        1 UNL1     0.0428
     84 H         7.867644   -1.409923   -1.193607 H        1 UNL1     0.0428
     85 H         8.638954   -1.437684   -2.740679 H        1 UNL1     0.0428
     86 H         6.678946   0.084175   -2.481518 H        1 UNL1     0.0317
     87 H         5.611375   -1.191288   -2.112956 H        1 UNL1     0.0317
     88 H         9.186463   -4.231465   -2.389962 H        1 UNL1     0.0429
     89 H         8.76569   -3.573972   -0.806647 H        1 UNL1     0.0429
     90 H         6.580348   -5.237414   -1.378846 H        1 UNL1     0.0308
     91 H         9.105178   -6.603376   -2.480749 H        1 UNL1     0.0233
     92 H         7.548866   -7.408472   -2.15639 H        1 UNL1     0.0233
     93 H         7.672197   -6.203496   -3.420283 H        1 UNL1     0.0233
     94 H         7.710192   -6.845007   0.201611 H        1 UNL1     0.0233
     95 H         9.114171   -5.76701   0.168535 H        1 UNL1     0.0233
     96 H         7.552788   -5.173647   0.780085 H        1 UNL1     0.0233
     97 H         2.251711   1.614386   -10.961571 H        1 UNL1     0.0280
     98 H         3.734036   1.970509   -11.806011 H        1 UNL1     0.0280
     99 H         3.128201   0.288448   -11.748009 H        1 UNL1     0.0280
     100 H         5.604259   -0.165381   -11.719964 H        1 UNL1     0.2922
     101 H         3.331699   3.990574   -1.340073 H        1 UNL1     0.0236
     102 H         4.347296   4.556293   -2.723759 H        1 UNL1     0.0236
     103 H         5.05999   4.090527   -1.210277 H        1 UNL1     0.0236
     104 H         3.623011   2.744508   0.064913 H        1 UNL1     0.2098
     105 H         0.789218   -0.584462   -1.430499 H        1 UNL1     0.0234
     106 H         1.611945   -0.4846   0.151981 H        1 UNL1     0.0234
     107 H         0.0   0.0   0.0 H        1 UNL1     0.0234
     108 H         0.005817   2.128402   -3.25304 H        1 UNL1     0.2098
     109 H         0.833859   -0.341078   -3.232322 H        1 UNL1     0.0234
     110 H         0.163655   -1.78923   -2.415937 H        1 UNL1     0.0234
     111 H         0.118725   -1.657582   -4.139159 H        1 UNL1     0.0234
     112 H         -3.601152   0.029097   2.083935 H        1 UNL1     0.0342
     113 H         -3.751717   0.802151   0.465925 H        1 UNL1     0.0342
     114 H         -4.364055   -0.831956   0.735566 H        1 UNL1     0.0342
     115 H         -3.922069   2.156809   -1.337719 H        1 UNL1     0.0234
     116 H         -2.859759   3.565831   -1.421035 H        1 UNL1     0.0234
     117 H         -3.136095   2.492348   -2.80845 H        1 UNL1     0.0234
     118 H         -0.024672   -0.225629   -7.774838 H        1 UNL1     0.0309
     119 H         1.578093   -0.936504   -8.140711 H        1 UNL1     0.0309
     120 H         0.962725   -0.84941   -6.504895 H        1 UNL1     0.0309
     121 H         -2.222663   2.67312   -5.939513 H        1 UNL1     0.0524
     122 H         -3.698749   1.781038   -5.54936 H        1 UNL1     0.0524
     123 H         -3.40592   3.370702   -4.800385 H        1 UNL1     0.0524
@<TRIPOS>BOND
     1     1     2    1
     2     1    42    1
     3     2     3    2
     4     3     4    1
     5     4     5    2
     6     5     7    1
     7     6    75    1
     8     6    76    1
     9     6    77    1
    10     7     9   am
    11     9    10    1
    12    10    11    2
    13    10    43    1
    14    11    14    1
    15    11    15    1
    16    12    13   ar
    17    12    27   ar
    18    12    43    1
    19    13    14    1
    20    13    30   ar
    21    14    17    2
    22    15    16    1
    23    16    17    1
    24    16    18    1
    25    16    22    1
    26    18    19    1
    27    19    20    1
    28    20    21    1
    29    21    22    1
    30    23    24    1
    31    23    88    1
    32    23    89    1
    33    24    25    1
    34    24    26    1
    35    24    90    1
    36    25    91    1
    37    25    92    1
    38    25    93    1
    39    26    94    1
    40    26    95    1
    41    26    96    1
    42    27    28   ar
    43    28    29   ar
    44    29    30   ar
    45    29    31    1
    46    30    33    1
    47    31    32    1
    48    32    33    1
    49    32    35    1
    50    34    97    1
    51    34    98    1
    52    34    99    1
    53    35    61    1
    54    36    37    1
    55    36    60    1
    56    37    38    1
    57    38    39    1
    58    39    40    1
    59    40    41    1
    60    41    42    1
    61    45   100    1
    62    47   101    1
    63    47   102    1
    64    47   103    1
    65    48   104    1
    66    49   105    1
    67    49   106    1
    68    49   107    1
    69    50   108    1
    70    51    59    1
    71    52   109    1
    72    52   110    1
    73    52   111    1
    74    53    54    1
    75    54    55    2
    76    54    56    1
    77    56   112    1
    78    56   113    1
    79    56   114    1
    80    57   115    1
    81    57   116    1
    82    57   117    1
    83    58   118    1
    84    58   119    1
    85    58   120    1
    86    59   121    1
    87    59   122    1
    88    59   123    1
    89    60    61    2
    90     1    47    1
    91     1    62    1
    92     2    63    1
    93     3    64    1
    94     4    65    1
    95     5     6    1
    96     7     8    2
    97     9    78    1
    98    15    79    1
    99    18    80    1
   100    18    81    1
   101    19    82    1
   102    19    83    1
   103    20    23    1
   104    21    84    1
   105    21    85    1
   106    22    86    1
   107    22    87    1
   108    27    45    1
   109    28    34    1
   110    32    58    1
   111    33    46    2
   112    36    51    1
   113    36    66    1
   114    37    52    1
   115    37    67    1
   116    38    53    1
   117    38    68    1
   118    42    48    1
   119    42    72    1
   120    43    44    2
   121    60    73    1
   122    61    74    1
   123    39    69    1
   124    39    57    1
   125    40    70    1
   126    40    50    1
   127    41    71    1
   128    41    49    1
