@<TRIPOS>MOLECULE
*****
 123 128 0 0 0
SMALL
GASTEIGER

@<TRIPOS>ATOM
     1 C         4.371122   2.454069   -1.584252 C.3        1 UNL1     0.0009
     2 C         5.543537   2.491265   -3.019904 C.2        1 UNL1     -0.0787
     3 C         6.861743   2.258473   -3.571437 C.2        1 UNL1     -0.0649
     4 C         7.352777   2.392948   -5.186107 C.2        1 UNL1     -0.0542
     5 C         8.332103   2.014257   -6.137208 C.2        1 UNL1     0.0115
     6 C         9.721779   1.341834   -6.31033 C.3        1 UNL1     -0.0348
     7 C         7.990799   2.150127   -7.699911 C.2        1 UNL1     0.2441
     8 O         8.41047   3.064676   -8.395613 O.2        1 UNL1     -0.2702
     9 N         7.396087   1.013032   -8.273917 N.am        1 UNL1     -0.2772
     10 C         6.027915   1.066069   -8.137482 C.2        1 UNL1     0.1049
     11 C         5.542044   0.655304   -6.980147 C.2        1 UNL1     0.0801
     12 C         4.057703   2.570037   -8.474644 C.ar        1 UNL1     0.0753
     13 C         3.683963   2.251983   -7.130111 C.ar        1 UNL1     0.0305
     14 C         4.343378   1.181577   -6.385494 C.2        1 UNL1     0.0924
     15 N         6.143476   -0.006698   -5.976873 N.pl3        1 UNL1     -0.3170
     16 C         5.131795   -0.366382   -5.019071 C.3        1 UNL1     0.1275
     17 N         4.06512   0.688805   -5.181885 N.2        1 UNL1     -0.2557
     18 C         4.507476   -1.676018   -5.491066 C.3        1 UNL1     0.0016
     19 C         5.610818   -2.708888   -5.656614 C.3        1 UNL1     0.0026
     20 N         6.285937   -2.881241   -4.377733 N.3        1 UNL1     -0.3018
     21 C         6.866444   -1.661763   -3.811825 C.3        1 UNL1     0.0026
     22 C         5.73989   -0.639754   -3.649752 C.3        1 UNL1     0.0016
     23 C         7.146657   -4.046943   -4.347002 C.3        1 UNL1     0.0012
     24 C         8.593619   -3.657215   -4.687838 C.3        1 UNL1     -0.0339
     25 C         9.310179   -4.776392   -5.461169 C.3        1 UNL1     -0.0615
     26 C         8.612992   -2.346638   -5.455167 C.3        1 UNL1     -0.0615
     27 C         3.345924   3.50783   -9.21898 C.ar        1 UNL1     0.1347
     28 C         2.223328   4.160605   -8.741788 C.ar        1 UNL1     0.0342
     29 C         1.903175   3.867877   -7.399039 C.ar        1 UNL1     0.1435
     30 C         2.628626   2.957669   -6.629324 C.ar        1 UNL1     0.0774
     31 O         0.77493   4.339234   -6.824675 O.3        1 UNL1     -0.4436
     32 C         0.559008   3.48278   -5.692979 C.3        1 UNL1     0.3143
     33 C         1.921946   2.906572   -5.366487 C.2        1 UNL1     0.2504
     34 C         1.267575   4.983657   -9.559848 C.3        1 UNL1     -0.0327
     35 O         0.184764   4.318996   -4.591192 O.2        1 UNL1     -0.4528
     36 C         -2.082383   2.203297   -2.402138 C.3        1 UNL1     0.0854
     37 C         -1.792467   0.811303   -1.719625 C.3        1 UNL1     0.0236
     38 C         -2.022973   0.77546   -0.133017 C.3        1 UNL1     0.1131
     39 C         -1.356822   1.880316   0.782301 C.3        1 UNL1     0.0200
     40 C         0.225166   2.345164   0.529974 C.3        1 UNL1     0.0661
     41 C         1.553248   1.302476   0.366848 C.3        1 UNL1     0.0091
     42 C         3.089364   1.477497   -0.620632 C.3        1 UNL1     0.0661
     43 C         5.173958   1.802864   -9.08101 C.2        1 UNL1     0.2131
     44 O         5.335481   1.685344   -10.282191 O.2        1 UNL1     -0.2851
     45 O         3.802962   3.792928   -10.503998 O.3        1 UNL1     -0.5056
     46 O         2.338302   2.514402   -4.299386 O.2        1 UNL1     -0.2836
     47 C         4.676925   3.621629   -0.607897 C.3        1 UNL1     -0.0566
     48 O         3.985751   1.083478   0.49308 O.3        1 UNL1     -0.3909
     49 C         1.044674   -0.104676   0.146007 C.3        1 UNL1     -0.0577
     50 O         0.297123   3.374072   -0.436408 O.3        1 UNL1     -0.3910
     51 O         -2.335136   3.278319   -1.525853 O.3        1 UNL1     -0.3753
     52 C         -0.600728   0.064966   -2.403502 C.3        1 UNL1     -0.0564
     53 O         -2.085267   -0.612849   0.43359 O.3        1 UNL1     -0.4608
     54 C         -2.65813   -0.958588   1.629509 C.2        1 UNL1     0.3042
     55 O         -3.495954   -1.837041   1.830036 O.2        1 UNL1     -0.2512
     56 C         -2.124097   -0.181627   2.799061 C.3        1 UNL1     0.0332
     57 C         -2.443022   3.030437   1.018022 C.3        1 UNL1     -0.0567
     58 C         -0.362446   2.339829   -6.178898 C.3        1 UNL1     0.0210
     59 C         -3.100236   4.343142   -2.08856 C.3        1 UNL1     0.0372
     60 C         -1.0387   2.664666   -3.357662 C.2        1 UNL1     -0.0208
     61 C         -0.473706   3.863354   -3.508235 C.2        1 UNL1     0.0882
     62 H         3.573864   2.804281   -2.250918 H        1 UNL1     0.0365
     63 H         4.913307   2.948357   -3.785637 H        1 UNL1     0.0576
     64 H         7.655679   1.795588   -2.98109 H        1 UNL1     0.0615
     65 H         6.531137   2.933113   -5.664241 H        1 UNL1     0.0622
     66 H         -2.986879   2.033076   -3.002935 H        1 UNL1     0.0645
     67 H         -2.611811   0.162583   -2.07515 H        1 UNL1     0.0362
     68 H         -3.103686   0.981506   -0.099448 H        1 UNL1     0.0741
     69 H         -1.338794   1.522147   1.802986 H        1 UNL1     0.0359
     70 H         0.430099   2.853849   1.49138 H        1 UNL1     0.0600
     71 H         1.887905   1.249287   1.421425 H        1 UNL1     0.0348
     72 H         2.676914   2.491839   -0.519084 H        1 UNL1     0.0602
     73 H         -0.846417   1.894996   -4.063271 H        1 UNL1     0.0628
     74 H         -0.573327   4.685531   -2.798771 H        1 UNL1     0.1022
     75 H         10.173328   1.622221   -7.29243 H        1 UNL1     0.0279
     76 H         10.494806   1.636858   -5.604314 H        1 UNL1     0.0279
     77 H         9.656011   0.248141   -6.406304 H        1 UNL1     0.0279
     78 H         7.719879   0.177286   -7.79146 H        1 UNL1     0.1553
     79 H         6.999317   -0.519865   -6.082368 H        1 UNL1     0.1484
     80 H         3.761105   -2.001499   -4.756382 H        1 UNL1     0.0317
     81 H         3.975122   -1.536771   -6.438093 H        1 UNL1     0.0317
     82 H         6.322649   -2.42152   -6.444415 H        1 UNL1     0.0428
     83 H         5.143958   -3.634269   -5.995379 H        1 UNL1     0.0428
     84 H         7.297012   -1.80236   -2.815504 H        1 UNL1     0.0428
     85 H         7.706197   -1.290541   -4.41542 H        1 UNL1     0.0428
     86 H         6.171989   0.184937   -3.113875 H        1 UNL1     0.0317
     87 H         4.982198   -1.024126   -2.956025 H        1 UNL1     0.0317
     88 H         7.126248   -4.45984   -3.329951 H        1 UNL1     0.0429
     89 H         6.778949   -4.831989   -5.020254 H        1 UNL1     0.0429
     90 H         9.143171   -3.468089   -3.758087 H        1 UNL1     0.0308
     91 H         8.681952   -5.168503   -6.266578 H        1 UNL1     0.0233
     92 H         10.249983   -4.413367   -5.883767 H        1 UNL1     0.0233
     93 H         9.57167   -5.626298   -4.819204 H        1 UNL1     0.0233
     94 H         9.543906   -2.256527   -6.025355 H        1 UNL1     0.0233
     95 H         7.779845   -2.315685   -6.162888 H        1 UNL1     0.0233
     96 H         8.535951   -1.488621   -4.78149 H        1 UNL1     0.0233
     97 H         1.653796   5.978947   -9.758497 H        1 UNL1     0.0280
     98 H         1.071997   4.535476   -10.542772 H        1 UNL1     0.0280
     99 H         0.312119   5.085223   -9.019587 H        1 UNL1     0.0280
     100 H         3.715996   3.083988   -11.116748 H        1 UNL1     0.2922
     101 H         3.927396   4.404133   -0.724296 H        1 UNL1     0.0236
     102 H         5.690673   4.008409   -0.706386 H        1 UNL1     0.0236
     103 H         4.595871   3.31118   0.447208 H        1 UNL1     0.0236
     104 H         3.438045   0.638947   1.169379 H        1 UNL1     0.2098
     105 H         1.45543   -0.598167   -0.731238 H        1 UNL1     0.0234
     106 H         1.118445   -0.757292   1.015821 H        1 UNL1     0.0234
     107 H         -0.0   0.0   0.0 H        1 UNL1     0.0234
     108 H         1.230851   3.654778   -0.492306 H        1 UNL1     0.2098
     109 H         0.233505   0.740713   -2.638308 H        1 UNL1     0.0234
     110 H         -0.231209   -0.783538   -1.817636 H        1 UNL1     0.0234
     111 H         -0.899315   -0.382476   -3.360888 H        1 UNL1     0.0234
     112 H         -2.544621   -0.574174   3.729874 H        1 UNL1     0.0342
     113 H         -1.035582   -0.184816   2.830185 H        1 UNL1     0.0342
     114 H         -2.451086   0.862185   2.695632 H        1 UNL1     0.0342
     115 H         -1.980959   3.962114   1.372513 H        1 UNL1     0.0234
     116 H         -3.03245   3.27283   0.131529 H        1 UNL1     0.0234
     117 H         -3.142769   2.812256   1.843063 H        1 UNL1     0.0234
     118 H         -1.428204   2.557813   -5.99009 H        1 UNL1     0.0309
     119 H         -0.228061   2.100709   -7.238598 H        1 UNL1     0.0309
     120 H         -0.195467   1.404565   -5.633457 H        1 UNL1     0.0309
     121 H         -2.850342   5.252735   -1.543078 H        1 UNL1     0.0524
     122 H         -2.858791   4.51601   -3.150567 H        1 UNL1     0.0524
     123 H         -4.161935   4.131636   -1.998258 H        1 UNL1     0.0524
@<TRIPOS>BOND
     1     1     2    1
     2     1    42    1
     3     2     3    2
     4     3     4    1
     5     4     5    2
     6     5     7    1
     7     6    75    1
     8     6    76    1
     9     6    77    1
    10     7     9   am
    11     9    10    1
    12    10    11    2
    13    10    43    1
    14    11    14    1
    15    11    15    1
    16    12    13   ar
    17    12    27   ar
    18    12    43    1
    19    13    14    1
    20    13    30   ar
    21    14    17    2
    22    15    16    1
    23    16    17    1
    24    16    18    1
    25    16    22    1
    26    18    19    1
    27    19    20    1
    28    20    21    1
    29    21    22    1
    30    23    24    1
    31    23    88    1
    32    23    89    1
    33    24    25    1
    34    24    26    1
    35    24    90    1
    36    25    91    1
    37    25    92    1
    38    25    93    1
    39    26    94    1
    40    26    95    1
    41    26    96    1
    42    27    28   ar
    43    28    29   ar
    44    29    30   ar
    45    29    31    1
    46    30    33    1
    47    31    32    1
    48    32    33    1
    49    32    35    1
    50    34    97    1
    51    34    98    1
    52    34    99    1
    53    35    61    1
    54    36    37    1
    55    36    60    1
    56    37    38    1
    57    38    39    1
    58    39    40    1
    59    40    41    1
    60    41    42    1
    61    45   100    1
    62    47   101    1
    63    47   102    1
    64    47   103    1
    65    48   104    1
    66    49   105    1
    67    49   106    1
    68    49   107    1
    69    50   108    1
    70    51    59    1
    71    52   109    1
    72    52   110    1
    73    52   111    1
    74    53    54    1
    75    54    55    2
    76    54    56    1
    77    56   112    1
    78    56   113    1
    79    56   114    1
    80    57   115    1
    81    57   116    1
    82    57   117    1
    83    58   118    1
    84    58   119    1
    85    58   120    1
    86    59   121    1
    87    59   122    1
    88    59   123    1
    89    60    61    2
    90     1    47    1
    91     1    62    1
    92     2    63    1
    93     3    64    1
    94     4    65    1
    95     5     6    1
    96     7     8    2
    97     9    78    1
    98    15    79    1
    99    18    80    1
   100    18    81    1
   101    19    82    1
   102    19    83    1
   103    20    23    1
   104    21    84    1
   105    21    85    1
   106    22    86    1
   107    22    87    1
   108    27    45    1
   109    28    34    1
   110    32    58    1
   111    33    46    2
   112    36    51    1
   113    36    66    1
   114    37    52    1
   115    37    67    1
   116    38    53    1
   117    38    68    1
   118    42    48    1
   119    42    72    1
   120    43    44    2
   121    60    73    1
   122    61    74    1
   123    39    69    1
   124    39    57    1
   125    40    70    1
   126    40    50    1
   127    41    71    1
   128    41    49    1
