@<TRIPOS>MOLECULE
*****
 123 128 0 0 0
SMALL
GASTEIGER

@<TRIPOS>ATOM
     1 C         0.555426   -5.340277   -0.481805 C.3        1 UNL1     0.0009
     2 C         0.305243   -6.818898   -1.571817 C.2        1 UNL1     -0.0787
     3 C         -0.512217   -7.928383   -2.015493 C.2        1 UNL1     -0.0649
     4 C         -0.206736   -9.002415   -3.288087 C.2        1 UNL1     -0.0542
     5 C         -0.78517   -9.932861   -4.186286 C.2        1 UNL1     0.0115
     6 C         -2.080169   -10.72674   -4.511949 C.3        1 UNL1     -0.0348
     7 C         0.028959   -10.347704   -5.506169 C.2        1 UNL1     0.2441
     8 O         0.63484   -11.405434   -5.609317 O.2        1 UNL1     -0.2702
     9 N         -0.215161   -9.536547   -6.628034 N.am        1 UNL1     -0.2772
     10 C         0.640377   -8.458911   -6.63674 C.2        1 UNL1     0.1049
     11 C         0.283618   -7.426507   -5.894389 C.2        1 UNL1     0.0801
     12 C         3.053061   -7.839765   -6.406631 C.ar        1 UNL1     0.0753
     13 C         2.630911   -6.867771   -5.444536 C.ar        1 UNL1     0.0305
     14 C         1.219289   -6.541158   -5.255598 C.2        1 UNL1     0.0924
     15 N         -0.886123   -7.162085   -5.287498 N.pl3        1 UNL1     -0.3170
     16 C         -0.811275   -5.829175   -4.750839 C.3        1 UNL1     0.1275
     17 N         0.658876   -5.608654   -4.490549 N.2        1 UNL1     -0.2557
     18 C         -1.191519   -4.867938   -5.872953 C.3        1 UNL1     0.0016
     19 C         -2.563289   -5.255759   -6.401566 C.3        1 UNL1     0.0026
     20 N         -3.522142   -5.189385   -5.307388 N.3        1 UNL1     -0.3018
     21 C         -3.208244   -6.034615   -4.153515 C.3        1 UNL1     0.0026
     22 C         -1.828406   -5.624793   -3.635841 C.3        1 UNL1     0.0016
     23 C         -4.898116   -5.246899   -5.759085 C.3        1 UNL1     0.0012
     24 C         -5.279843   -3.949864   -6.489662 C.3        1 UNL1     -0.0339
     25 C         -4.410382   -2.768303   -6.029218 C.3        1 UNL1     -0.0615
     26 C         -5.194949   -4.154198   -7.992267 C.3        1 UNL1     -0.0615
     27 C         4.403864   -8.058677   -6.666491 C.ar        1 UNL1     0.1347
     28 C         5.418824   -7.341747   -6.058282 C.ar        1 UNL1     0.0342
     29 C         4.981385   -6.424492   -5.079275 C.ar        1 UNL1     0.1435
     30 C         3.633291   -6.22022   -4.782399 C.ar        1 UNL1     0.0774
     31 O         5.840411   -5.57327   -4.477194 O.3        1 UNL1     -0.4436
     32 C         5.00686   -4.531958   -3.946406 C.3        1 UNL1     0.3143
     33 C         3.635861   -5.159722   -3.796446 C.2        1 UNL1     0.2504
     34 C         6.865983   -7.343576   -6.465502 C.3        1 UNL1     -0.0327
     35 O         5.478903   -4.240251   -2.625295 O.2        1 UNL1     -0.4528
     36 C         4.707361   -0.571519   -2.030976 C.3        1 UNL1     0.0854
     37 C         3.321257   0.178218   -2.095259 C.3        1 UNL1     0.0236
     38 C         2.930375   0.991015   -0.769243 C.3        1 UNL1     0.1131
     39 C         2.996825   0.274153   0.639289 C.3        1 UNL1     0.0200
     40 C         2.409879   -1.27592   0.826923 C.3        1 UNL1     0.0661
     41 C         0.888798   -1.830528   0.320629 C.3        1 UNL1     0.0091
     42 C         0.362598   -3.484248   -0.274119 C.3        1 UNL1     0.0661
     43 C         2.002836   -8.543993   -7.183387 C.2        1 UNL1     0.2131
     44 O         2.204716   -9.075897   -8.259983 O.2        1 UNL1     -0.2851
     45 O         4.731086   -9.054791   -7.584162 O.3        1 UNL1     -0.5056
     46 O         2.752868   -4.865263   -3.022191 O.2        1 UNL1     -0.2836
     47 C         0.873568   -5.788293   0.970107 C.3        1 UNL1     -0.0566
     48 O         -0.839139   -3.539628   0.592991 O.3        1 UNL1     -0.3909
     49 C         0.285864   -0.810983   -0.619845 C.3        1 UNL1     -0.0577
     50 O         3.402786   -2.229839   0.507708 O.3        1 UNL1     -0.3910
     51 O         5.344224   -0.582216   -0.77331 O.3        1 UNL1     -0.3753
     52 C         2.263153   -0.624768   -2.920231 C.3        1 UNL1     -0.0564
     53 O         1.806088   1.964456   -0.971029 O.3        1 UNL1     -0.4608
     54 C         1.944781   3.319656   -1.119786 C.2        1 UNL1     0.3042
     55 O         1.734508   4.189134   -0.275019 O.2        1 UNL1     -0.2512
     56 C         2.467694   3.726269   -2.468097 C.3        1 UNL1     0.0332
     57 C         4.418068   0.61656   1.288135 C.3        1 UNL1     -0.0567
     58 C         4.936098   -3.432438   -5.031569 C.3        1 UNL1     0.0210
     59 C         4.896642   0.424128   0.133777 C.3        1 UNL1     0.0372
     60 C         4.68348   -1.979779   -2.51201 C.2        1 UNL1     -0.0208
     61 C         5.223115   -3.081354   -1.988493 C.2        1 UNL1     0.0882
     62 H         1.519833   -5.164862   -0.973598 H        1 UNL1     0.0365
     63 H         1.271844   -6.864681   -2.077838 H        1 UNL1     0.0576
     64 H         -1.529588   -8.073724   -1.645441 H        1 UNL1     0.0615
     65 H         0.846579   -8.831361   -3.526312 H        1 UNL1     0.0622
     66 H         5.350332   -0.023747   -2.73424 H        1 UNL1     0.0645
     67 H         3.493462   0.999008   -2.813039 H        1 UNL1     0.0362
     68 H         3.746056   1.729993   -0.759303 H        1 UNL1     0.0741
     69 H         2.403759   0.839408   1.345807 H        1 UNL1     0.0359
     70 H         2.330753   -1.317616   1.930127 H        1 UNL1     0.0600
     71 H         0.300869   -1.65031   1.241942 H        1 UNL1     0.0348
     72 H         1.3066   -3.642894   0.267182 H        1 UNL1     0.0602
     73 H         4.245563   -2.011263   -3.478698 H        1 UNL1     0.0628
     74 H         5.638519   -3.146248   -0.982279 H        1 UNL1     0.1022
     75 H         -2.485916   -11.209944   -3.590582 H        1 UNL1     0.0279
     76 H         -2.929292   -10.146019   -4.865251 H        1 UNL1     0.0279
     77 H         -1.893029   -11.601918   -5.151278 H        1 UNL1     0.0279
     78 H         -1.165101   -9.173195   -6.587201 H        1 UNL1     0.1553
     79 H         -1.754018   -7.60026   -5.535881 H        1 UNL1     0.1484
     80 H         -1.187823   -3.843125   -5.482428 H        1 UNL1     0.0317
     81 H         -0.452841   -4.898073   -6.681098 H        1 UNL1     0.0317
     82 H         -2.555058   -6.255342   -6.860562 H        1 UNL1     0.0428
     83 H         -2.81407   -4.558834   -7.20185 H        1 UNL1     0.0428
     84 H         -3.899617   -5.906386   -3.314842 H        1 UNL1     0.0428
     85 H         -3.280649   -7.103411   -4.397954 H        1 UNL1     0.0428
     86 H         -1.690339   -6.167158   -2.718908 H        1 UNL1     0.0317
     87 H         -1.846012   -4.577309   -3.310936 H        1 UNL1     0.0317
     88 H         -4.991992   -6.084727   -6.462311 H        1 UNL1     0.0429
     89 H         -5.583337   -5.448273   -4.925602 H        1 UNL1     0.0429
     90 H         -6.329591   -3.714161   -6.278273 H        1 UNL1     0.0308
     91 H         -3.939757   -2.265704   -6.879517 H        1 UNL1     0.0233
     92 H         -5.007516   -2.044078   -5.470167 H        1 UNL1     0.0233
     93 H         -3.601932   -3.081505   -5.357542 H        1 UNL1     0.0233
     94 H         -6.149619   -3.895842   -8.46311 H        1 UNL1     0.0233
     95 H         -4.423803   -3.503987   -8.414784 H        1 UNL1     0.0233
     96 H         -4.956664   -5.192137   -8.241007 H        1 UNL1     0.0233
     97 H         7.024486   -7.866213   -7.404096 H        1 UNL1     0.0280
     98 H         7.254347   -6.328062   -6.617684 H        1 UNL1     0.0280
     99 H         7.467738   -7.840809   -5.687206 H        1 UNL1     0.0280
     100 H         4.29974   -9.878397   -7.438435 H        1 UNL1     0.2922
     101 H         1.881626   -5.473722   1.239403 H        1 UNL1     0.0236
     102 H         0.720702   -6.854653   1.132874 H        1 UNL1     0.0236
     103 H         0.219762   -5.294761   1.708455 H        1 UNL1     0.0236
     104 H         -0.535698   -3.494798   1.520829 H        1 UNL1     0.2098
     105 H         0.974082   -0.429835   -1.370107 H        1 UNL1     0.0234
     106 H         -0.649311   -1.119431   -1.087002 H        1 UNL1     0.0234
     107 H         -0.0   0.0   0.0 H        1 UNL1     0.0234
     108 H         3.526255   -2.794566   1.294858 H        1 UNL1     0.2098
     109 H         1.941547   -1.540532   -2.404811 H        1 UNL1     0.0234
     110 H         1.384879   -0.02843   -3.189968 H        1 UNL1     0.0234
     111 H         2.668247   -0.954099   -3.88635 H        1 UNL1     0.0234
     112 H         2.574327   4.814357   -2.513247 H        1 UNL1     0.0342
     113 H         3.407186   3.231276   -2.709305 H        1 UNL1     0.0342
     114 H         1.730296   3.428399   -3.226175 H        1 UNL1     0.0342
     115 H         5.239006   0.473841   0.571979 H        1 UNL1     0.0234
     116 H         4.494935   1.633756   1.677303 H        1 UNL1     0.0234
     117 H         4.713544   -0.079009   2.092386 H        1 UNL1     0.0234
     118 H         4.034176   -3.52865   -5.661081 H        1 UNL1     0.0309
     119 H         4.97908   -2.419094   -4.619878 H        1 UNL1     0.0309
     120 H         5.756803   -3.501329   -5.753929 H        1 UNL1     0.0309
     121 H         5.710222   0.625858   0.830017 H        1 UNL1     0.0524
     122 H         4.654937   1.370754   -0.37761 H        1 UNL1     0.0524
     123 H         4.018426   0.080435   0.672948 H        1 UNL1     0.0524
@<TRIPOS>BOND
     1     1     2    1
     2     1    42    1
     3     2     3    2
     4     3     4    1
     5     4     5    2
     6     5     7    1
     7     6    75    1
     8     6    76    1
     9     6    77    1
    10     7     9   am
    11     9    10    1
    12    10    11    2
    13    10    43    1
    14    11    14    1
    15    11    15    1
    16    12    13   ar
    17    12    27   ar
    18    12    43    1
    19    13    14    1
    20    13    30   ar
    21    14    17    2
    22    15    16    1
    23    16    17    1
    24    16    18    1
    25    16    22    1
    26    18    19    1
    27    19    20    1
    28    20    21    1
    29    21    22    1
    30    23    24    1
    31    23    88    1
    32    23    89    1
    33    24    25    1
    34    24    26    1
    35    24    90    1
    36    25    91    1
    37    25    92    1
    38    25    93    1
    39    26    94    1
    40    26    95    1
    41    26    96    1
    42    27    28   ar
    43    28    29   ar
    44    29    30   ar
    45    29    31    1
    46    30    33    1
    47    31    32    1
    48    32    33    1
    49    32    35    1
    50    34    97    1
    51    34    98    1
    52    34    99    1
    53    35    61    1
    54    36    37    1
    55    36    60    1
    56    37    38    1
    57    38    39    1
    58    39    40    1
    59    40    41    1
    60    41    42    1
    61    45   100    1
    62    47   101    1
    63    47   102    1
    64    47   103    1
    65    48   104    1
    66    49   105    1
    67    49   106    1
    68    49   107    1
    69    50   108    1
    70    51    59    1
    71    52   109    1
    72    52   110    1
    73    52   111    1
    74    53    54    1
    75    54    55    2
    76    54    56    1
    77    56   112    1
    78    56   113    1
    79    56   114    1
    80    57   115    1
    81    57   116    1
    82    57   117    1
    83    58   118    1
    84    58   119    1
    85    58   120    1
    86    59   121    1
    87    59   122    1
    88    59   123    1
    89    60    61    2
    90     1    47    1
    91     1    62    1
    92     2    63    1
    93     3    64    1
    94     4    65    1
    95     5     6    1
    96     7     8    2
    97     9    78    1
    98    15    79    1
    99    18    80    1
   100    18    81    1
   101    19    82    1
   102    19    83    1
   103    20    23    1
   104    21    84    1
   105    21    85    1
   106    22    86    1
   107    22    87    1
   108    27    45    1
   109    28    34    1
   110    32    58    1
   111    33    46    2
   112    36    51    1
   113    36    66    1
   114    37    52    1
   115    37    67    1
   116    38    53    1
   117    38    68    1
   118    42    48    1
   119    42    72    1
   120    43    44    2
   121    60    73    1
   122    61    74    1
   123    39    69    1
   124    39    57    1
   125    40    70    1
   126    40    50    1
   127    41    71    1
   128    41    49    1
