@<TRIPOS>MOLECULE
*****
 123 128 0 0 0
SMALL
GASTEIGER

@<TRIPOS>ATOM
     1 C         -0.801544   -1.130931   3.890945 C.3        1 UNL1     0.0009
     2 C         -1.603589   -2.69306   4.485514 C.2        1 UNL1     -0.0787
     3 C         -2.786768   -3.421231   4.892825 C.2        1 UNL1     -0.0649
     4 C         -2.918948   -5.067795   5.26392 C.2        1 UNL1     -0.0542
     5 C         -3.810808   -6.161009   5.392563 C.2        1 UNL1     0.0115
     6 C         -5.31155   -6.560016   5.436029 C.3        1 UNL1     -0.0348
     7 C         -3.217849   -7.652745   5.381963 C.2        1 UNL1     0.2441
     8 O         -3.070747   -8.317573   6.398274 O.2        1 UNL1     -0.2702
     9 N         -3.123597   -8.240042   4.108248 N.am        1 UNL1     -0.2772
     10 C         -1.916255   -7.930922   3.525074 C.2        1 UNL1     0.1049
     11 C         -1.845782   -6.759958   2.918363 C.2        1 UNL1     0.0801
     12 C         0.546506   -7.896054   3.962028 C.ar        1 UNL1     0.0753
     13 C         0.532527   -6.546274   3.486101 C.ar        1 UNL1     0.0305
     14 C         -0.641513   -5.979851   2.825914 C.2        1 UNL1     0.0924
     15 N         -2.822536   -5.896976   2.590124 N.pl3        1 UNL1     -0.3170
     16 C         -2.236893   -4.853846   1.790652 C.3        1 UNL1     0.1275
     17 N         -0.797587   -4.795646   2.240914 N.2        1 UNL1     -0.2557
     18 C         -2.209671   -5.350783   0.348427 C.3        1 UNL1     0.0016
     19 C         -3.622542   -5.7364   -0.059843 C.3        1 UNL1     0.0026
     20 N         -4.483631   -4.569762   0.076202 N.3        1 UNL1     -0.3018
     21 C         -4.526957   -3.981933   1.416705 C.3        1 UNL1     0.0026
     22 C         -3.09806   -3.597764   1.804729 C.3        1 UNL1     0.0016
     23 C         -5.772152   -4.742093   -0.564624 C.3        1 UNL1     0.0012
     24 C         -5.616962   -4.746924   -2.093561 C.3        1 UNL1     -0.0339
     25 C         -6.831947   -4.105883   -2.784165 C.3        1 UNL1     -0.0615
     26 C         -4.322033   -4.058048   -2.487757 C.3        1 UNL1     -0.0615
     27 C         1.706637   -8.466605   4.480377 C.ar        1 UNL1     0.1347
     28 C         2.918544   -7.801689   4.537124 C.ar        1 UNL1     0.0342
     29 C         2.869134   -6.458242   4.108321 C.ar        1 UNL1     0.1435
     30 C         1.705684   -5.862024   3.620338 C.ar        1 UNL1     0.0774
     31 O         3.989639   -5.711457   3.999749 O.3        1 UNL1     -0.4436
     32 C         3.625019   -4.636012   3.121488 C.3        1 UNL1     0.3143
     33 C         2.117325   -4.529742   3.230027 C.2        1 UNL1     0.2504
     34 C         4.252356   -8.424292   4.842754 C.3        1 UNL1     -0.0327
     35 O         4.169052   -3.431277   3.674565 O.2        1 UNL1     -0.4528
     36 C         4.883287   -1.159189   0.718964 C.3        1 UNL1     0.0854
     37 C         3.898153   -0.634757   -0.395489 C.3        1 UNL1     0.0236
     38 C         3.849875   0.959829   -0.558919 C.3        1 UNL1     0.1131
     39 C         3.627688   1.873112   0.713408 C.3        1 UNL1     0.0200
     40 C         2.483451   1.465442   1.856634 C.3        1 UNL1     0.0661
     41 C         0.868083   1.053514   1.54277 C.3        1 UNL1     0.0091
     42 C         -0.257961   -0.099255   2.419441 C.3        1 UNL1     0.0661
     43 C         -0.6924   -8.697325   3.802854 C.2        1 UNL1     0.2131
     44 O         -0.7098   -9.91483   3.792131 O.2        1 UNL1     -0.2851
     45 O         1.623638   -9.770585   4.964303 O.3        1 UNL1     -0.5056
     46 O         1.415876   -3.558478   3.055472 O.2        1 UNL1     -0.2836
     47 C         -0.687433   -0.1074   5.052557 C.3        1 UNL1     -0.0566
     48 O         -1.389425   0.858358   2.462848 O.3        1 UNL1     -0.3909
     49 C         0.712239   0.78254   0.06298 C.3        1 UNL1     -0.0577
     50 O         3.028181   0.585522   2.819303 O.3        1 UNL1     -0.3910
     51 O         5.461747   -0.172885   1.543597 O.3        1 UNL1     -0.3753
     52 C         2.613733   -1.520332   -0.500243 C.3        1 UNL1     -0.0564
     53 O         3.193399   1.413672   -1.8299 O.3        1 UNL1     -0.4608
     54 C         2.651536   2.653657   -2.046122 C.2        1 UNL1     0.3042
     55 O         1.459811   2.959561   -2.038814 O.2        1 UNL1     -0.2512
     56 C         3.678006   3.730384   -2.255244 C.3        1 UNL1     0.0332
     57 C         5.068081   2.335634   1.232557 C.3        1 UNL1     -0.0567
     58 C         3.991017   -5.096123   1.691149 C.3        1 UNL1     0.0210
     59 C         6.725403   -0.526028   2.104247 C.3        1 UNL1     0.0372
     60 C         4.315108   -2.195677   1.623412 C.2        1 UNL1     -0.0208
     61 C         4.382088   -2.316126   2.949968 C.2        1 UNL1     0.0882
     62 H         0.156747   -1.66239   3.846869 H        1 UNL1     0.0365
     63 H         -0.729267   -3.334427   4.61466 H        1 UNL1     0.0576
     64 H         -3.781759   -2.974093   4.836533 H        1 UNL1     0.0615
     65 H         -1.881272   -5.394175   5.374316 H        1 UNL1     0.0622
     66 H         5.690969   -1.655004   0.162311 H        1 UNL1     0.0645
     67 H         4.378378   -0.937958   -1.342068 H        1 UNL1     0.0362
     68 H         4.888717   1.144128   -0.87255 H        1 UNL1     0.0741
     69 H         3.298882   2.850722   0.386953 H        1 UNL1     0.0359
     70 H         2.39075   2.432525   2.386933 H        1 UNL1     0.0600
     71 H         0.39355   2.050415   1.632018 H        1 UNL1     0.0348
     72 H         0.548238   0.135785   3.129452 H        1 UNL1     0.0602
     73 H         3.902574   -2.980589   1.039478 H        1 UNL1     0.0628
     74 H         4.736266   -1.534587   3.623015 H        1 UNL1     0.1022
     75 H         -5.875889   -5.88842   6.127052 H        1 UNL1     0.0279
     76 H         -5.867262   -6.459959   4.506383 H        1 UNL1     0.0279
     77 H         -5.47728   -7.541401   5.904129 H        1 UNL1     0.0279
     78 H         -3.857539   -7.871894   3.506689 H        1 UNL1     0.1553
     79 H         -3.791707   -6.149743   2.528892 H        1 UNL1     0.1484
     80 H         -1.808935   -4.558406   -0.295246 H        1 UNL1     0.0317
     81 H         -1.538254   -6.209713   0.243121 H        1 UNL1     0.0317
     82 H         -4.002254   -6.58015   0.534984 H        1 UNL1     0.0428
     83 H         -3.579903   -6.089539   -1.090631 H        1 UNL1     0.0428
     84 H         -5.11674   -3.061734   1.473285 H        1 UNL1     0.0428
     85 H         -5.008573   -4.652514   2.141746 H        1 UNL1     0.0428
     86 H         -3.1848   -3.053678   2.726919 H        1 UNL1     0.0317
     87 H         -2.707918   -2.849324   1.104213 H        1 UNL1     0.0317
     88 H         -6.182222   -5.711288   -0.251897 H        1 UNL1     0.0429
     89 H         -6.48445   -3.972099   -0.241338 H        1 UNL1     0.0429
     90 H         -5.523441   -5.782384   -2.441829 H        1 UNL1     0.0308
     91 H         -7.113955   -3.165701   -2.300812 H        1 UNL1     0.0233
     92 H         -6.621531   -3.91754   -3.839561 H        1 UNL1     0.0233
     93 H         -7.716357   -4.753996   -2.759608 H        1 UNL1     0.0233
     94 H         -4.440192   -2.970564   -2.430726 H        1 UNL1     0.0233
     95 H         -3.521268   -4.346611   -1.801122 H        1 UNL1     0.0233
     96 H         -4.024707   -4.320367   -3.50695 H        1 UNL1     0.0233
     97 H         4.62566   -9.016078   4.012294 H        1 UNL1     0.0280
     98 H         5.024243   -7.670403   5.045482 H        1 UNL1     0.0280
     99 H         4.159545   -9.082612   5.722013 H        1 UNL1     0.0280
     100 H         1.60508   -10.435   4.298097 H        1 UNL1     0.2922
     101 H         0.342781   -0.0651   5.40544 H        1 UNL1     0.0236
     102 H         -1.389845   -0.298827   5.863086 H        1 UNL1     0.0236
     103 H         -0.912608   0.92047   4.722448 H        1 UNL1     0.0236
     104 H         -1.756486   0.840374   3.368338 H        1 UNL1     0.2098
     105 H         0.332824   1.62469   -0.510291 H        1 UNL1     0.0234
     106 H         1.59609   0.364956   -0.419054 H        1 UNL1     0.0234
     107 H         0.0   0.0   0.0 H        1 UNL1     0.0234
     108 H         3.730294   0.07045   2.377141 H        1 UNL1     0.2098
     109 H         2.037175   -1.529243   0.435285 H        1 UNL1     0.0234
     110 H         1.959863   -1.233648   -1.330911 H        1 UNL1     0.0234
     111 H         2.861614   -2.570048   -0.706633 H        1 UNL1     0.0234
     112 H         3.181579   4.694618   -2.400704 H        1 UNL1     0.0342
     113 H         4.393395   3.77895   -1.435669 H        1 UNL1     0.0342
     114 H         4.237284   3.497856   -3.171925 H        1 UNL1     0.0342
     115 H         5.856882   2.112579   0.500964 H        1 UNL1     0.0234
     116 H         5.133356   3.398886   1.471898 H        1 UNL1     0.0234
     117 H         5.423318   1.766821   2.109027 H        1 UNL1     0.0234
     118 H         4.896613   -4.590921   1.312106 H        1 UNL1     0.0309
     119 H         4.124484   -6.179492   1.609293 H        1 UNL1     0.0309
     120 H         3.225491   -4.828406   0.954668 H        1 UNL1     0.0309
     121 H         6.535656   -1.054601   3.038036 H        1 UNL1     0.0524
     122 H         7.298785   -1.20356   1.449861 H        1 UNL1     0.0524
     123 H         7.315883   0.366275   2.291923 H        1 UNL1     0.0524
@<TRIPOS>BOND
     1     1     2    1
     2     1    42    1
     3     2     3    2
     4     3     4    1
     5     4     5    2
     6     5     7    1
     7     6    75    1
     8     6    76    1
     9     6    77    1
    10     7     9   am
    11     9    10    1
    12    10    11    2
    13    10    43    1
    14    11    14    1
    15    11    15    1
    16    12    13   ar
    17    12    27   ar
    18    12    43    1
    19    13    14    1
    20    13    30   ar
    21    14    17    2
    22    15    16    1
    23    16    17    1
    24    16    18    1
    25    16    22    1
    26    18    19    1
    27    19    20    1
    28    20    21    1
    29    21    22    1
    30    23    24    1
    31    23    88    1
    32    23    89    1
    33    24    25    1
    34    24    26    1
    35    24    90    1
    36    25    91    1
    37    25    92    1
    38    25    93    1
    39    26    94    1
    40    26    95    1
    41    26    96    1
    42    27    28   ar
    43    28    29   ar
    44    29    30   ar
    45    29    31    1
    46    30    33    1
    47    31    32    1
    48    32    33    1
    49    32    35    1
    50    34    97    1
    51    34    98    1
    52    34    99    1
    53    35    61    1
    54    36    37    1
    55    36    60    1
    56    37    38    1
    57    38    39    1
    58    39    40    1
    59    40    41    1
    60    41    42    1
    61    45   100    1
    62    47   101    1
    63    47   102    1
    64    47   103    1
    65    48   104    1
    66    49   105    1
    67    49   106    1
    68    49   107    1
    69    50   108    1
    70    51    59    1
    71    52   109    1
    72    52   110    1
    73    52   111    1
    74    53    54    1
    75    54    55    2
    76    54    56    1
    77    56   112    1
    78    56   113    1
    79    56   114    1
    80    57   115    1
    81    57   116    1
    82    57   117    1
    83    58   118    1
    84    58   119    1
    85    58   120    1
    86    59   121    1
    87    59   122    1
    88    59   123    1
    89    60    61    2
    90     1    47    1
    91     1    62    1
    92     2    63    1
    93     3    64    1
    94     4    65    1
    95     5     6    1
    96     7     8    2
    97     9    78    1
    98    15    79    1
    99    18    80    1
   100    18    81    1
   101    19    82    1
   102    19    83    1
   103    20    23    1
   104    21    84    1
   105    21    85    1
   106    22    86    1
   107    22    87    1
   108    27    45    1
   109    28    34    1
   110    32    58    1
   111    33    46    2
   112    36    51    1
   113    36    66    1
   114    37    52    1
   115    37    67    1
   116    38    53    1
   117    38    68    1
   118    42    48    1
   119    42    72    1
   120    43    44    2
   121    60    73    1
   122    61    74    1
   123    39    69    1
   124    39    57    1
   125    40    70    1
   126    40    50    1
   127    41    71    1
   128    41    49    1
