@<TRIPOS>MOLECULE
*****
 123 128 0 0 0
SMALL
GASTEIGER

@<TRIPOS>ATOM
     1 C         1.777133   -1.726838   -4.884578 C.3        1 UNL1     0.0009
     2 C         1.858215   -1.373791   -6.702769 C.2        1 UNL1     -0.0787
     3 C         1.379391   -1.603916   -8.049549 C.2        1 UNL1     -0.0649
     4 C         1.829429   -0.794022   -9.466551 C.2        1 UNL1     -0.0542
     5 C         1.455899   -0.490772   -10.799065 C.2        1 UNL1     0.0115
     6 C         0.445457   -0.830379   -11.929108 C.3        1 UNL1     -0.0348
     7 C         2.169118   0.738734   -11.545135 C.2        1 UNL1     0.2441
     8 O         3.057312   0.58991   -12.373078 O.2        1 UNL1     -0.2702
     9 N         1.529432   1.979471   -11.379232 N.am        1 UNL1     -0.2772
     10 C         1.991676   2.610492   -10.247213 C.2        1 UNL1     0.1049
     11 C         1.433506   2.244266   -9.107675 C.2        1 UNL1     0.0801
     12 C         4.093445   3.256638   -9.054571 C.ar        1 UNL1     0.0753
     13 C         3.523229   2.655218   -7.887628 C.ar        1 UNL1     0.0305
     14 C         2.120903   2.246931   -7.8448 C.2        1 UNL1     0.0924
     15 N         0.335525   1.502384   -8.88278 N.pl3        1 UNL1     -0.3170
     16 C         0.05947   1.542766   -7.47125 C.3        1 UNL1     0.1275
     17 N         1.406154   1.770789   -6.829245 N.2        1 UNL1     -0.2557
     18 C         -0.755385   2.805008   -7.205812 C.3        1 UNL1     0.0016
     19 C         -1.993939   2.778626   -8.087218 C.3        1 UNL1     0.0026
     20 N         -2.764274   1.582531   -7.77582 N.3        1 UNL1     -0.3018
     21 C         -2.043915   0.318422   -7.941585 C.3        1 UNL1     0.0026
     22 C         -0.806232   0.364861   -7.043877 C.3        1 UNL1     0.0016
     23 C         -4.10033   1.610276   -8.336915 C.3        1 UNL1     0.0012
     24 C         -4.968483   2.649086   -7.609632 C.3        1 UNL1     -0.0339
     25 C         -5.000382   3.985816   -8.368706 C.3        1 UNL1     -0.0615
     26 C         -6.366432   2.097465   -7.390006 C.3        1 UNL1     -0.0615
     27 C         5.394925   3.752849   -9.048123 C.ar        1 UNL1     0.1347
     28 C         6.205659   3.740022   -7.927143 C.ar        1 UNL1     0.0342
     29 C         5.640682   3.099104   -6.804116 C.ar        1 UNL1     0.1435
     30 C         4.351466   2.565124   -6.806693 C.ar        1 UNL1     0.0774
     31 O         6.261817   3.10202   -5.604454 O.3        1 UNL1     -0.4436
     32 C         5.224004   2.805253   -4.658014 C.3        1 UNL1     0.3143
     33 C         4.155403   2.084608   -5.454868 C.2        1 UNL1     0.2504
     34 C         7.508835   4.473574   -7.77308 C.3        1 UNL1     -0.0327
     35 O         5.75738   1.858629   -3.723848 O.2        1 UNL1     -0.4528
     36 C         3.958005   2.505408   -0.444821 C.3        1 UNL1     0.0854
     37 C         2.411294   2.487782   -0.136772 C.3        1 UNL1     0.0236
     38 C         1.970816   1.510514   1.055986 C.3        1 UNL1     0.1131
     39 C         2.453478   0.004092   1.055586 C.3        1 UNL1     0.0200
     40 C         2.417069   -0.894384   -0.349353 C.3        1 UNL1     0.0661
     41 C         1.093999   -1.041452   -1.400765 C.3        1 UNL1     0.0091
     42 C         1.039432   -1.266096   -3.220644 C.3        1 UNL1     0.0661
     43 C         3.222354   3.415341   -10.245484 C.2        1 UNL1     0.2131
     44 O         3.431189   4.227102   -11.128756 O.2        1 UNL1     -0.2851
     45 O         5.889743   4.281291   -10.238645 O.3        1 UNL1     -0.5056
     46 O         3.340255   1.278461   -5.065619 O.2        1 UNL1     -0.2836
     47 C         2.417311   -3.106602   -4.574085 C.3        1 UNL1     -0.0566
     48 O         0.048137   -2.367831   -3.169341 O.3        1 UNL1     -0.3909
     49 C         0.076716   0.023645   -1.056965 C.3        1 UNL1     -0.0577
     50 O         3.606115   -0.712482   -1.091515 O.3        1 UNL1     -0.3910
     51 O         4.732744   1.544332   0.236019 O.3        1 UNL1     -0.3753
     52 C         1.5573   2.650426   -1.436461 C.3        1 UNL1     -0.0564
     53 O         0.580423   1.766394   1.559633 O.3        1 UNL1     -0.4608
     54 C         -0.180767   0.88123   2.277272 C.2        1 UNL1     0.3042
     55 O         -1.202835   0.304383   1.907862 O.2        1 UNL1     -0.2512
     56 C         0.374076   0.577792   3.639912 C.3        1 UNL1     0.0332
     57 C         3.769381   -0.080964   1.960759 C.3        1 UNL1     -0.0567
     58 C         4.661212   4.165805   -4.185051 C.3        1 UNL1     0.0210
     59 C         6.097367   1.908583   0.438481 C.3        1 UNL1     0.0372
     60 C         4.313343   2.400323   -1.886297 C.2        1 UNL1     -0.0208
     61 C         5.23957   1.659741   -2.496532 C.2        1 UNL1     0.0882
     62 H         2.559494   -0.97544   -4.723261 H        1 UNL1     0.0365
     63 H         2.710428   -0.692015   -6.73997 H        1 UNL1     0.0576
     64 H         0.52103   -2.249176   -8.24946 H        1 UNL1     0.0615
     65 H         2.731606   -0.247358   -9.178943 H        1 UNL1     0.0622
     66 H         4.29199   3.502204   -0.124043 H        1 UNL1     0.0645
     67 H         2.215176   3.478958   0.307825 H        1 UNL1     0.0362
     68 H         2.505002   1.987829   1.891652 H        1 UNL1     0.0741
     69 H         1.815811   -0.565853   1.71812 H        1 UNL1     0.0359
     70 H         2.508039   -1.913218   0.07345 H        1 UNL1     0.0600
     71 H         0.612191   -1.945686   -0.97984 H        1 UNL1     0.0348
     72 H         2.050427   -1.565516   -2.908309 H        1 UNL1     0.0602
     73 H         3.778819   3.137411   -2.432405 H        1 UNL1     0.0628
     74 H         5.7888   0.845556   -2.02252 H        1 UNL1     0.1022
     75 H         -0.298022   -1.585261   -11.576366 H        1 UNL1     0.0279
     76 H         -0.190707   -0.017298   -12.271547 H        1 UNL1     0.0279
     77 H         0.912037   -1.362593   -12.770982 H        1 UNL1     0.0279
     78 H         0.528576   1.835396   -11.262582 H        1 UNL1     0.1553
     79 H         -0.375419   1.336791   -9.571307 H        1 UNL1     0.1484
     80 H         -1.021237   2.841912   -6.142456 H        1 UNL1     0.0317
     81 H         -0.163762   3.703327   -7.412348 H        1 UNL1     0.0317
     82 H         -1.734286   2.815239   -9.155465 H        1 UNL1     0.0428
     83 H         -2.559516   3.688349   -7.883311 H        1 UNL1     0.0428
     84 H         -2.617847   -0.558209   -7.625463 H        1 UNL1     0.0428
     85 H         -1.808561   0.11725   -8.99584 H        1 UNL1     0.0428
     86 H         -0.379138   -0.61982   -7.0884 H        1 UNL1     0.0317
     87 H         -1.108282   0.463256   -5.994029 H        1 UNL1     0.0317
     88 H         -4.02123   1.898873   -9.393205 H        1 UNL1     0.0429
     89 H         -4.565264   0.616378   -8.309014 H        1 UNL1     0.0429
     90 H         -4.555459   2.825322   -6.609349 H        1 UNL1     0.0308
     91 H         -5.366085   3.853812   -9.391418 H        1 UNL1     0.0233
     92 H         -5.635345   4.708807   -7.851295 H        1 UNL1     0.0233
     93 H         -4.008465   4.447834   -8.442698 H        1 UNL1     0.0233
     94 H         -7.03744   2.893543   -7.049648 H        1 UNL1     0.0233
     95 H         -6.763181   1.700481   -8.328599 H        1 UNL1     0.0233
     96 H         -6.367862   1.300566   -6.641062 H        1 UNL1     0.0233
     97 H         7.934605   4.344187   -6.78252 H        1 UNL1     0.0280
     98 H         8.271213   4.115155   -8.477048 H        1 UNL1     0.0280
     99 H         7.348113   5.550929   -7.942101 H        1 UNL1     0.0280
     100 H         6.227361   5.156867   -10.167902 H        1 UNL1     0.2922
     101 H         2.414101   -3.279632   -3.498118 H        1 UNL1     0.0236
     102 H         3.411278   -3.224525   -5.004326 H        1 UNL1     0.0236
     103 H         1.82898   -3.939862   -4.993295 H        1 UNL1     0.0236
     104 H         0.543183   -3.210382   -3.171931 H        1 UNL1     0.2098
     105 H         0.365382   1.030757   -1.347154 H        1 UNL1     0.0234
     106 H         -0.93779   -0.190197   -1.393082 H        1 UNL1     0.0234
     107 H         -0.0   0.0   0.0 H        1 UNL1     0.0234
     108 H         3.6266   0.219468   -1.382752 H        1 UNL1     0.2098
     109 H         1.760804   1.857672   -2.169836 H        1 UNL1     0.0234
     110 H         0.480804   2.700849   -1.240613 H        1 UNL1     0.0234
     111 H         1.778844   3.59509   -1.950731 H        1 UNL1     0.0234
     112 H         -0.266929   -0.147939   4.149592 H        1 UNL1     0.0342
     113 H         1.403398   0.225352   3.593804 H        1 UNL1     0.0342
     114 H         0.366009   1.505773   4.228088 H        1 UNL1     0.0342
     115 H         3.579242   0.252721   2.990172 H        1 UNL1     0.0234
     116 H         4.207182   -1.079687   2.014894 H        1 UNL1     0.0234
     117 H         4.562018   0.622056   1.651839 H        1 UNL1     0.0234
     118 H         5.273341   4.610797   -3.381132 H        1 UNL1     0.0309
     119 H         4.55376   4.891962   -4.997056 H        1 UNL1     0.0309
     120 H         3.670343   4.074442   -3.726863 H        1 UNL1     0.0309
     121 H         6.556184   2.026572   -0.542805 H        1 UNL1     0.0524
     122 H         6.199494   2.869162   0.970361 H        1 UNL1     0.0524
     123 H         6.612696   1.136547   1.002831 H        1 UNL1     0.0524
@<TRIPOS>BOND
     1     1     2    1
     2     1    42    1
     3     2     3    2
     4     3     4    1
     5     4     5    2
     6     5     7    1
     7     6    75    1
     8     6    76    1
     9     6    77    1
    10     7     9   am
    11     9    10    1
    12    10    11    2
    13    10    43    1
    14    11    14    1
    15    11    15    1
    16    12    13   ar
    17    12    27   ar
    18    12    43    1
    19    13    14    1
    20    13    30   ar
    21    14    17    2
    22    15    16    1
    23    16    17    1
    24    16    18    1
    25    16    22    1
    26    18    19    1
    27    19    20    1
    28    20    21    1
    29    21    22    1
    30    23    24    1
    31    23    88    1
    32    23    89    1
    33    24    25    1
    34    24    26    1
    35    24    90    1
    36    25    91    1
    37    25    92    1
    38    25    93    1
    39    26    94    1
    40    26    95    1
    41    26    96    1
    42    27    28   ar
    43    28    29   ar
    44    29    30   ar
    45    29    31    1
    46    30    33    1
    47    31    32    1
    48    32    33    1
    49    32    35    1
    50    34    97    1
    51    34    98    1
    52    34    99    1
    53    35    61    1
    54    36    37    1
    55    36    60    1
    56    37    38    1
    57    38    39    1
    58    39    40    1
    59    40    41    1
    60    41    42    1
    61    45   100    1
    62    47   101    1
    63    47   102    1
    64    47   103    1
    65    48   104    1
    66    49   105    1
    67    49   106    1
    68    49   107    1
    69    50   108    1
    70    51    59    1
    71    52   109    1
    72    52   110    1
    73    52   111    1
    74    53    54    1
    75    54    55    2
    76    54    56    1
    77    56   112    1
    78    56   113    1
    79    56   114    1
    80    57   115    1
    81    57   116    1
    82    57   117    1
    83    58   118    1
    84    58   119    1
    85    58   120    1
    86    59   121    1
    87    59   122    1
    88    59   123    1
    89    60    61    2
    90     1    47    1
    91     1    62    1
    92     2    63    1
    93     3    64    1
    94     4    65    1
    95     5     6    1
    96     7     8    2
    97     9    78    1
    98    15    79    1
    99    18    80    1
   100    18    81    1
   101    19    82    1
   102    19    83    1
   103    20    23    1
   104    21    84    1
   105    21    85    1
   106    22    86    1
   107    22    87    1
   108    27    45    1
   109    28    34    1
   110    32    58    1
   111    33    46    2
   112    36    51    1
   113    36    66    1
   114    37    52    1
   115    37    67    1
   116    38    53    1
   117    38    68    1
   118    42    48    1
   119    42    72    1
   120    43    44    2
   121    60    73    1
   122    61    74    1
   123    39    69    1
   124    39    57    1
   125    40    70    1
   126    40    50    1
   127    41    71    1
   128    41    49    1
