@<TRIPOS>MOLECULE
*****
 123 128 0 0 0
SMALL
GASTEIGER

@<TRIPOS>ATOM
     1 C         1.758163   4.263126   1.589766 C.3        1 UNL1     0.0009
     2 C         3.35041   5.211647   1.635536 C.2        1 UNL1     -0.0787
     3 C         4.643228   5.467539   2.234859 C.2        1 UNL1     -0.0649
     4 C         5.852903   6.519319   1.690065 C.2        1 UNL1     -0.0542
     5 C         7.232211   6.835946   1.755899 C.2        1 UNL1     0.0115
     6 C         8.557865   6.527843   2.504923 C.3        1 UNL1     -0.0348
     7 C         7.8706   7.768058   0.615453 C.2        1 UNL1     0.2441
     8 O         8.116786   8.954153   0.786031 O.2        1 UNL1     -0.2702
     9 N         8.3688   7.074757   -0.501365 N.am        1 UNL1     -0.2772
     10 C         7.37526   6.892111   -1.435624 C.2        1 UNL1     0.1049
     11 C         6.571821   5.862868   -1.237216 C.2        1 UNL1     0.0801
     12 C         5.577044   8.104867   -2.681809 C.ar        1 UNL1     0.0753
     13 C         4.691178   7.062181   -2.261506 C.ar        1 UNL1     0.0305
     14 C         5.190551   5.839775   -1.635885 C.2        1 UNL1     0.0924
     15 N         6.685041   4.830549   -0.383971 N.pl3        1 UNL1     -0.3170
     16 C         5.634188   3.894793   -0.684506 C.3        1 UNL1     0.1275
     17 N         4.533639   4.740213   -1.277616 N.2        1 UNL1     -0.2557
     18 C         6.135397   2.999261   -1.81345 C.3        1 UNL1     0.0016
     19 C         7.443369   2.356556   -1.380171 C.3        1 UNL1     0.0026
     20 N         7.206922   1.586953   -0.166569 N.3        1 UNL1     -0.3018
     21 C         6.664871   2.351389   0.958681 C.3        1 UNL1     0.0026
     22 C         5.349098   2.984426   0.50272 C.3        1 UNL1     0.0016
     23 C         8.304947   0.699578   0.16138 C.3        1 UNL1     0.0012
     24 C         8.379911   -0.459358   -0.845101 C.3        1 UNL1     -0.0339
     25 C         6.990951   -0.809796   -1.403706 C.3        1 UNL1     -0.0615
     26 C         9.360167   -0.122442   -1.95522 C.3        1 UNL1     -0.0615
     27 C         5.107013   9.211419   -3.385182 C.ar        1 UNL1     0.1347
     28 C         3.784049   9.366035   -3.759226 C.ar        1 UNL1     0.0342
     29 C         2.921873   8.351257   -3.292275 C.ar        1 UNL1     0.1435
     30 C         3.372551   7.255155   -2.555613 C.ar        1 UNL1     0.0774
     31 O         1.624572   8.301599   -3.665838 O.3        1 UNL1     -0.4436
     32 C         1.224717   6.947035   -3.408651 C.3        1 UNL1     0.3143
     33 C         2.19131   6.441583   -2.356781 C.2        1 UNL1     0.2504
     34 C         3.254321   10.390896   -4.72315 C.3        1 UNL1     -0.0327
     35 O         -0.070287   6.993976   -2.797085 O.2        1 UNL1     -0.4528
     36 C         -1.823618   3.788308   -3.825485 C.3        1 UNL1     0.0854
     37 C         -1.373233   2.292506   -3.608104 C.3        1 UNL1     0.0236
     38 C         -2.444528   1.366749   -2.85508 C.3        1 UNL1     0.1131
     39 C         -3.082945   1.853997   -1.492258 C.3        1 UNL1     0.0200
     40 C         -2.130012   2.553094   -0.315135 C.3        1 UNL1     0.0661
     41 C         -0.673006   1.925849   0.285952 C.3        1 UNL1     0.0091
     42 C         0.823951   2.78303   0.910263 C.3        1 UNL1     0.0661
     43 C         7.027094   7.925621   -2.422028 C.2        1 UNL1     0.2131
     44 O         7.898957   8.505178   -3.043885 O.2        1 UNL1     -0.2851
     45 O         6.027461   10.203382   -3.71718 O.3        1 UNL1     -0.5056
     46 O         2.017566   5.57732   -1.526892 O.2        1 UNL1     -0.2836
     47 C         0.819886   4.728881   2.735492 C.3        1 UNL1     -0.0566
     48 O         0.934863   1.944901   2.128603 O.3        1 UNL1     -0.3909
     49 C         -0.198678   0.824552   -0.635815 C.3        1 UNL1     -0.0577
     50 O         -2.003907   3.943898   -0.533048 O.3        1 UNL1     -0.3910
     51 O         -3.02067   4.170334   -3.186304 O.3        1 UNL1     -0.3753
     52 C         0.161674   2.181425   -3.331212 C.3        1 UNL1     -0.0564
     53 O         -2.155762   -0.10147   -2.970292 O.3        1 UNL1     -0.4608
     54 C         -3.069582   -1.107645   -2.795729 C.2        1 UNL1     0.3042
     55 O         -3.788687   -1.301854   -1.816438 O.2        1 UNL1     -0.2512
     56 C         -3.204511   -2.011086   -3.988332 C.3        1 UNL1     0.0332
     57 C         -4.477446   2.557265   -1.837158 C.3        1 UNL1     -0.0567
     58 C         1.461661   6.164314   -4.721182 C.3        1 UNL1     0.0210
     59 C         -3.597864   3.17058   -2.347731 C.3        1 UNL1     0.0372
     60 C         -0.802025   4.810626   -3.469996 C.2        1 UNL1     -0.0208
     61 C         -0.920181   5.94921   -2.785591 C.2        1 UNL1     0.0882
     62 H         1.467957   4.830677   0.697366 H        1 UNL1     0.0365
     63 H         3.176012   5.940644   0.841421 H        1 UNL1     0.0576
     64 H         5.030372   4.848123   3.046987 H        1 UNL1     0.0615
     65 H         5.344394   7.138135   0.945775 H        1 UNL1     0.0622
     66 H         -1.973266   3.876562   -4.910779 H        1 UNL1     0.0645
     67 H         -1.383778   1.859121   -4.623302 H        1 UNL1     0.0362
     68 H         -3.263977   1.399215   -3.589226 H        1 UNL1     0.0741
     69 H         -3.503855   0.999197   -0.979852 H        1 UNL1     0.0359
     70 H         -2.809513   2.469878   0.554586 H        1 UNL1     0.0600
     71 H         -1.054575   1.340298   1.145308 H        1 UNL1     0.0348
     72 H         0.010843   3.52212   0.954049 H        1 UNL1     0.0602
     73 H         0.108651   4.581285   -3.965295 H        1 UNL1     0.0628
     74 H         -1.798167   6.230224   -2.203003 H        1 UNL1     0.1022
     75 H         8.937553   7.441914   3.021977 H        1 UNL1     0.0279
     76 H         8.499936   5.806425   3.316876 H        1 UNL1     0.0279
     77 H         9.390156   6.30373   1.82172 H        1 UNL1     0.0279
     78 H         8.693313   6.153416   -0.215184 H        1 UNL1     0.1553
     79 H         7.548197   4.558106   0.049237 H        1 UNL1     0.1484
     80 H         5.372296   2.243685   -2.036047 H        1 UNL1     0.0317
     81 H         6.2839   3.575193   -2.733178 H        1 UNL1     0.0317
     82 H         8.233743   3.105861   -1.226014 H        1 UNL1     0.0428
     83 H         7.783949   1.723811   -2.200347 H        1 UNL1     0.0428
     84 H         6.421822   1.736005   1.830484 H        1 UNL1     0.0428
     85 H         7.38907   3.083304   1.342286 H        1 UNL1     0.0428
     86 H         4.917515   3.421734   1.383905 H        1 UNL1     0.0317
     87 H         4.631079   2.201265   0.230318 H        1 UNL1     0.0317
     88 H         9.238224   1.274725   0.102263 H        1 UNL1     0.0429
     89 H         8.222064   0.325908   1.190105 H        1 UNL1     0.0429
     90 H         8.788144   -1.344808   -0.343565 H        1 UNL1     0.0308
     91 H         6.403895   0.091475   -1.604151 H        1 UNL1     0.0233
     92 H         7.080284   -1.391673   -2.324057 H        1 UNL1     0.0233
     93 H         6.404356   -1.423687   -0.70953 H        1 UNL1     0.0233
     94 H         9.92852   -1.014226   -2.240756 H        1 UNL1     0.0233
     95 H         8.818637   0.229122   -2.837893 H        1 UNL1     0.0233
     96 H         10.066272   0.65195   -1.642646 H        1 UNL1     0.0233
     97 H         2.749343   9.932682   -5.568294 H        1 UNL1     0.0280
     98 H         2.515822   11.055521   -4.256087 H        1 UNL1     0.0280
     99 H         4.087782   11.0011   -5.107974 H        1 UNL1     0.0280
     100 H         6.569228   10.489673   -3.002933 H        1 UNL1     0.2922
     101 H         1.364608   4.729794   3.679384 H        1 UNL1     0.0236
     102 H         -0.102099   4.15158   2.795925 H        1 UNL1     0.0236
     103 H         0.489682   5.772585   2.601926 H        1 UNL1     0.0236
     104 H         0.557974   2.454433   2.872446 H        1 UNL1     0.2098
     105 H         -0.933119   0.507632   -1.372001 H        1 UNL1     0.0234
     106 H         0.760574   1.015023   -1.116941 H        1 UNL1     0.0234
     107 H         0.0   0.0   0.0 H        1 UNL1     0.0234
     108 H         -1.8616   4.362264   0.337864 H        1 UNL1     0.2098
     109 H         0.517935   2.96157   -2.64407 H        1 UNL1     0.0234
     110 H         0.461039   1.197239   -2.955043 H        1 UNL1     0.0234
     111 H         0.748822   2.304729   -4.250994 H        1 UNL1     0.0234
     112 H         -3.633428   -2.970053   -3.682132 H        1 UNL1     0.0342
     113 H         -3.793679   -1.555406   -4.782738 H        1 UNL1     0.0342
     114 H         -2.199449   -2.203984   -4.388089 H        1 UNL1     0.0342
     115 H         -4.63079   2.650418   -2.92113 H        1 UNL1     0.0234
     116 H         -5.347948   2.042741   -1.425403 H        1 UNL1     0.0234
     117 H         -4.526594   3.614182   -1.523384 H        1 UNL1     0.0234
     118 H         0.514021   5.866297   -5.203022 H        1 UNL1     0.0309
     119 H         2.073938   6.712856   -5.443968 H        1 UNL1     0.0309
     120 H         1.971687   5.209175   -4.554787 H        1 UNL1     0.0309
     121 H         -2.943691   2.299561   -2.374926 H        1 UNL1     0.0524
     122 H         -3.671928   3.49745   -1.297156 H        1 UNL1     0.0524
     123 H         -4.588965   2.906311   -2.705467 H        1 UNL1     0.0524
@<TRIPOS>BOND
     1     1     2    1
     2     1    42    1
     3     2     3    2
     4     3     4    1
     5     4     5    2
     6     5     7    1
     7     6    75    1
     8     6    76    1
     9     6    77    1
    10     7     9   am
    11     9    10    1
    12    10    11    2
    13    10    43    1
    14    11    14    1
    15    11    15    1
    16    12    13   ar
    17    12    27   ar
    18    12    43    1
    19    13    14    1
    20    13    30   ar
    21    14    17    2
    22    15    16    1
    23    16    17    1
    24    16    18    1
    25    16    22    1
    26    18    19    1
    27    19    20    1
    28    20    21    1
    29    21    22    1
    30    23    24    1
    31    23    88    1
    32    23    89    1
    33    24    25    1
    34    24    26    1
    35    24    90    1
    36    25    91    1
    37    25    92    1
    38    25    93    1
    39    26    94    1
    40    26    95    1
    41    26    96    1
    42    27    28   ar
    43    28    29   ar
    44    29    30   ar
    45    29    31    1
    46    30    33    1
    47    31    32    1
    48    32    33    1
    49    32    35    1
    50    34    97    1
    51    34    98    1
    52    34    99    1
    53    35    61    1
    54    36    37    1
    55    36    60    1
    56    37    38    1
    57    38    39    1
    58    39    40    1
    59    40    41    1
    60    41    42    1
    61    45   100    1
    62    47   101    1
    63    47   102    1
    64    47   103    1
    65    48   104    1
    66    49   105    1
    67    49   106    1
    68    49   107    1
    69    50   108    1
    70    51    59    1
    71    52   109    1
    72    52   110    1
    73    52   111    1
    74    53    54    1
    75    54    55    2
    76    54    56    1
    77    56   112    1
    78    56   113    1
    79    56   114    1
    80    57   115    1
    81    57   116    1
    82    57   117    1
    83    58   118    1
    84    58   119    1
    85    58   120    1
    86    59   121    1
    87    59   122    1
    88    59   123    1
    89    60    61    2
    90     1    47    1
    91     1    62    1
    92     2    63    1
    93     3    64    1
    94     4    65    1
    95     5     6    1
    96     7     8    2
    97     9    78    1
    98    15    79    1
    99    18    80    1
   100    18    81    1
   101    19    82    1
   102    19    83    1
   103    20    23    1
   104    21    84    1
   105    21    85    1
   106    22    86    1
   107    22    87    1
   108    27    45    1
   109    28    34    1
   110    32    58    1
   111    33    46    2
   112    36    51    1
   113    36    66    1
   114    37    52    1
   115    37    67    1
   116    38    53    1
   117    38    68    1
   118    42    48    1
   119    42    72    1
   120    43    44    2
   121    60    73    1
   122    61    74    1
   123    39    69    1
   124    39    57    1
   125    40    70    1
   126    40    50    1
   127    41    71    1
   128    41    49    1
