@<TRIPOS>MOLECULE
*****
 123 128 0 0 0
SMALL
GASTEIGER

@<TRIPOS>ATOM
     1 C         -1.795424   -2.849479   2.765148 C.3        1 UNL1     0.0009
     2 C         -1.244975   -3.521739   4.402862 C.2        1 UNL1     -0.0787
     3 C         -0.470156   -4.470155   5.175008 C.2        1 UNL1     -0.0649
     4 C         -0.257158   -4.517738   6.853914 C.2        1 UNL1     -0.0542
     5 C         0.55607   -5.002557   7.907806 C.2        1 UNL1     0.0115
     6 C         1.727687   -5.963203   8.251022 C.3        1 UNL1     -0.0348
     7 C         0.44013   -4.319393   9.355851 C.2        1 UNL1     0.2441
     8 O         -0.173043   -4.827827   10.284312 O.2        1 UNL1     -0.2702
     9 N         1.304162   -3.230256   9.564132 N.am        1 UNL1     -0.2772
     10 C         0.712313   -2.060826   9.145242 C.2        1 UNL1     0.1049
     11 C         0.796034   -1.796116   7.854064 C.2        1 UNL1     0.0801
     12 C         -1.401191   -0.734146   9.319469 C.ar        1 UNL1     0.0753
     13 C         -1.375901   -0.653445   7.890673 C.ar        1 UNL1     0.0305
     14 C         -0.20548   -1.069808   7.121382 C.2        1 UNL1     0.0924
     15 N         1.546005   -2.374737   6.900508 N.pl3        1 UNL1     -0.3170
     16 C         1.396865   -1.602822   5.695452 C.3        1 UNL1     0.1275
     17 N         0.029839   -0.974748   5.815811 N.2        1 UNL1     -0.2557
     18 C         2.398455   -0.454195   5.767379 C.3        1 UNL1     0.0016
     19 C         3.78889   -1.033586   5.973741 C.3        1 UNL1     0.0026
     20 N         4.093452   -1.925594   4.863519 N.3        1 UNL1     -0.3018
     21 C         3.149076   -3.028809   4.675265 C.3        1 UNL1     0.0026
     22 C         1.759909   -2.423861   4.46515 C.3        1 UNL1     0.0016
     23 C         5.493856   -2.294372   4.804215 C.3        1 UNL1     0.0012
     24 C         6.204455   -1.531238   3.675308 C.3        1 UNL1     -0.0339
     25 C         6.397382   -2.416277   2.432914 C.3        1 UNL1     -0.0615
     26 C         5.440191   -0.261294   3.343763 C.3        1 UNL1     -0.0615
     27 C         -2.47032   -0.224279   10.052352 C.ar        1 UNL1     0.1347
     28 C         -3.547741   0.421343   9.472362 C.ar        1 UNL1     0.0342
     29 C         -3.524726   0.445624   8.061672 C.ar        1 UNL1     0.1435
     30 C         -2.477883   -0.093106   7.312599 C.ar        1 UNL1     0.0774
     31 O         -4.446713   1.133723   7.353529 O.3        1 UNL1     -0.4436
     32 C         -3.847136   1.32057   6.062611 C.3        1 UNL1     0.3143
     33 C         -2.819261   0.214006   5.939315 C.2        1 UNL1     0.2504
     34 C         -4.599638   1.210157   10.201322 C.3        1 UNL1     -0.0327
     35 O         -4.858835   1.061431   5.081508 O.2        1 UNL1     -0.4528
     36 C         -3.995666   3.240729   2.095927 C.3        1 UNL1     0.0854
     37 C         -2.668046   3.285383   1.24566 C.3        1 UNL1     0.0236
     38 C         -2.867885   3.07257   -0.33121 C.3        1 UNL1     0.1131
     39 C         -3.705448   1.837906   -0.856914 C.3        1 UNL1     0.0200
     40 C         -3.49518   0.32622   -0.18384 C.3        1 UNL1     0.0661
     41 C         -2.008753   -0.451635   0.067331 C.3        1 UNL1     0.0091
     42 C         -1.484066   -1.620109   1.380639 C.3        1 UNL1     0.0661
     43 C         -0.209639   -1.298654   10.000492 C.2        1 UNL1     0.2131
     44 O         0.069295   -1.074983   11.164496 O.2        1 UNL1     -0.2851
     45 O         -2.438436   -0.384173   11.436135 O.3        1 UNL1     -0.5056
     46 O         -2.394362   -0.311241   4.934611 O.2        1 UNL1     -0.2836
     47 C         -2.835835   -3.800129   2.114155 C.3        1 UNL1     -0.0566
     48 O         -0.875417   -2.587274   0.435518 O.3        1 UNL1     -0.3909
     49 C         -0.895488   0.559308   -0.094313 C.3        1 UNL1     -0.0577
     50 O         -4.323723   0.162589   0.949502 O.3        1 UNL1     -0.3910
     51 O         -5.158896   2.850099   1.401856 O.3        1 UNL1     -0.3753
     52 C         -1.459316   2.667038   2.021271 C.3        1 UNL1     -0.0564
     53 O         -1.669844   3.462889   -1.146485 O.3        1 UNL1     -0.4608
     54 C         -1.05643   2.675695   -2.085623 C.2        1 UNL1     0.3042
     55 O         -0.86473   2.940113   -3.271866 O.2        1 UNL1     -0.2512
     56 C         -0.530984   1.38074   -1.534521 C.3        1 UNL1     0.0332
     57 C         -5.203114   2.341568   -1.1049 C.3        1 UNL1     -0.0567
     58 C         -3.112471   2.680398   6.114227 C.3        1 UNL1     0.0210
     59 C         -5.053718   1.608329   0.707011 C.3        1 UNL1     0.0372
     60 C         -3.927581   2.403737   3.324735 C.2        1 UNL1     -0.0208
     61 C         -4.794208   1.516752   3.815611 C.2        1 UNL1     0.0882
     62 H         -2.365797   -2.077345   3.295426 H        1 UNL1     0.0365
     63 H         -1.839623   -2.909846   5.084368 H        1 UNL1     0.0576
     64 H         0.209166   -5.178874   4.696107 H        1 UNL1     0.0615
     65 H         -1.028244   -3.841959   7.23369 H        1 UNL1     0.0622
     66 H         -4.136248   4.274189   2.442689 H        1 UNL1     0.0645
     67 H         -2.35885   4.344282   1.286771 H        1 UNL1     0.0362
     68 H         -3.479247   3.958704   -0.560393 H        1 UNL1     0.0741
     69 H         -3.462104   1.670038   -1.897593 H        1 UNL1     0.0359
     70 H         -3.969052   -0.298071   -0.965356 H        1 UNL1     0.0600
     71 H         -1.925344   -1.019649   -0.87996 H        1 UNL1     0.0348
     72 H         -2.583645   -1.635489   1.382655 H        1 UNL1     0.0602
     73 H         -3.0833   2.694564   3.899068 H        1 UNL1     0.0628
     74 H         -5.651043   1.123409   3.267565 H        1 UNL1     0.1022
     75 H         2.43477   -6.042285   7.390317 H        1 UNL1     0.0279
     76 H         2.38219   -5.658788   9.064672 H        1 UNL1     0.0279
     77 H         1.402532   -7.008114   8.361189 H        1 UNL1     0.0279
     78 H         2.152793   -3.357315   9.01663 H        1 UNL1     0.1553
     79 H         2.358302   -2.931792   7.092332 H        1 UNL1     0.1484
     80 H         2.341039   0.128816   4.84025 H        1 UNL1     0.0317
     81 H         2.149688   0.231292   6.584615 H        1 UNL1     0.0317
     82 H         3.872659   -1.55779   6.937123 H        1 UNL1     0.0428
     83 H         4.487102   -0.19751   6.023997 H        1 UNL1     0.0428
     84 H         3.355134   -3.636084   3.788378 H        1 UNL1     0.0428
     85 H         3.188935   -3.74723   5.505686 H        1 UNL1     0.0428
     86 H         1.122764   -3.247011   4.199712 H        1 UNL1     0.0317
     87 H         1.755814   -1.798831   3.563809 H        1 UNL1     0.0317
     88 H         5.960169   -2.019461   5.759344 H        1 UNL1     0.0429
     89 H         5.616008   -3.378865   4.687053 H        1 UNL1     0.0429
     90 H         7.18997   -1.204379   4.027638 H        1 UNL1     0.0308
     91 H         7.378418   -2.253098   1.976796 H        1 UNL1     0.0233
     92 H         6.293225   -3.4727   2.691235 H        1 UNL1     0.0233
     93 H         5.648546   -2.215924   1.657066 H        1 UNL1     0.0233
     94 H         5.66916   0.519631   4.076951 H        1 UNL1     0.0233
     95 H         5.735692   0.105754   2.356891 H        1 UNL1     0.0233
     96 H         4.360159   -0.433004   3.347668 H        1 UNL1     0.0233
     97 H         -4.908958   0.723747   11.121625 H        1 UNL1     0.0280
     98 H         -4.241827   2.206117   10.49337 H        1 UNL1     0.0280
     99 H         -5.486422   1.32642   9.556969 H        1 UNL1     0.0280
     100 H         -2.704674   0.375103   11.924233 H        1 UNL1     0.2922
     101 H         -3.74761   -3.247734   1.887918 H        1 UNL1     0.0236
     102 H         -3.034272   -4.690675   2.709582 H        1 UNL1     0.0236
     103 H         -2.492415   -4.184672   1.13928 H        1 UNL1     0.0236
     104 H         -1.427683   -3.393456   0.442053 H        1 UNL1     0.2098
     105 H         -0.877069   1.056359   -1.060963 H        1 UNL1     0.0234
     106 H         -0.826191   1.292702   0.708966 H        1 UNL1     0.0234
     107 H         0.0   0.0   0.0 H        1 UNL1     0.0234
     108 H         -5.234685   0.386163   0.677599 H        1 UNL1     0.2098
     109 H         -1.745518   2.308119   3.019758 H        1 UNL1     0.0234
     110 H         -0.961655   1.861266   1.47099 H        1 UNL1     0.0234
     111 H         -0.664406   3.406207   2.187681 H        1 UNL1     0.0234
     112 H         -1.213251   0.563934   -1.788857 H        1 UNL1     0.0342
     113 H         0.479286   1.168151   -1.880935 H        1 UNL1     0.0342
     114 H         -0.497051   1.462557   -0.439387 H        1 UNL1     0.0342
     115 H         -5.716528   1.737337   -1.865491 H        1 UNL1     0.0234
     116 H         -5.826295   2.339688   -0.208412 H        1 UNL1     0.0234
     117 H         -5.260031   3.346656   -1.557118 H        1 UNL1     0.0234
     118 H         -2.592709   2.834581   7.076039 H        1 UNL1     0.0309
     119 H         -2.398159   2.814144   5.295647 H        1 UNL1     0.0309
     120 H         -3.799647   3.531788   6.059175 H        1 UNL1     0.0309
     121 H         -4.167924   1.658517   0.074392 H        1 UNL1     0.0524
     122 H         -4.923803   0.754761   1.393001 H        1 UNL1     0.0524
     123 H         -5.938926   1.441196   0.099914 H        1 UNL1     0.0524
@<TRIPOS>BOND
     1     1     2    1
     2     1    42    1
     3     2     3    2
     4     3     4    1
     5     4     5    2
     6     5     7    1
     7     6    75    1
     8     6    76    1
     9     6    77    1
    10     7     9   am
    11     9    10    1
    12    10    11    2
    13    10    43    1
    14    11    14    1
    15    11    15    1
    16    12    13   ar
    17    12    27   ar
    18    12    43    1
    19    13    14    1
    20    13    30   ar
    21    14    17    2
    22    15    16    1
    23    16    17    1
    24    16    18    1
    25    16    22    1
    26    18    19    1
    27    19    20    1
    28    20    21    1
    29    21    22    1
    30    23    24    1
    31    23    88    1
    32    23    89    1
    33    24    25    1
    34    24    26    1
    35    24    90    1
    36    25    91    1
    37    25    92    1
    38    25    93    1
    39    26    94    1
    40    26    95    1
    41    26    96    1
    42    27    28   ar
    43    28    29   ar
    44    29    30   ar
    45    29    31    1
    46    30    33    1
    47    31    32    1
    48    32    33    1
    49    32    35    1
    50    34    97    1
    51    34    98    1
    52    34    99    1
    53    35    61    1
    54    36    37    1
    55    36    60    1
    56    37    38    1
    57    38    39    1
    58    39    40    1
    59    40    41    1
    60    41    42    1
    61    45   100    1
    62    47   101    1
    63    47   102    1
    64    47   103    1
    65    48   104    1
    66    49   105    1
    67    49   106    1
    68    49   107    1
    69    50   108    1
    70    51    59    1
    71    52   109    1
    72    52   110    1
    73    52   111    1
    74    53    54    1
    75    54    55    2
    76    54    56    1
    77    56   112    1
    78    56   113    1
    79    56   114    1
    80    57   115    1
    81    57   116    1
    82    57   117    1
    83    58   118    1
    84    58   119    1
    85    58   120    1
    86    59   121    1
    87    59   122    1
    88    59   123    1
    89    60    61    2
    90     1    47    1
    91     1    62    1
    92     2    63    1
    93     3    64    1
    94     4    65    1
    95     5     6    1
    96     7     8    2
    97     9    78    1
    98    15    79    1
    99    18    80    1
   100    18    81    1
   101    19    82    1
   102    19    83    1
   103    20    23    1
   104    21    84    1
   105    21    85    1
   106    22    86    1
   107    22    87    1
   108    27    45    1
   109    28    34    1
   110    32    58    1
   111    33    46    2
   112    36    51    1
   113    36    66    1
   114    37    52    1
   115    37    67    1
   116    38    53    1
   117    38    68    1
   118    42    48    1
   119    42    72    1
   120    43    44    2
   121    60    73    1
   122    61    74    1
   123    39    69    1
   124    39    57    1
   125    40    70    1
   126    40    50    1
   127    41    71    1
   128    41    49    1
