@<TRIPOS>MOLECULE
*****
 123 128 0 0 0
SMALL
GASTEIGER

@<TRIPOS>ATOM
     1 C         -1.067776   0.834239   -5.211894 C.3        1 UNL1     0.0009
     2 C         -2.458862   0.989698   -6.427521 C.2        1 UNL1     -0.0787
     3 C         -3.208011   0.470273   -7.552251 C.2        1 UNL1     -0.0649
     4 C         -4.632482   1.087336   -8.227881 C.2        1 UNL1     -0.0542
     5 C         -5.76061   0.788999   -9.031248 C.2        1 UNL1     0.0115
     6 C         -6.382735   -0.272848   -9.97928 C.3        1 UNL1     -0.0348
     7 C         -7.039801   1.756557   -8.964223 C.2        1 UNL1     0.2441
     8 O         -7.290591   2.58865   -9.825182 O.2        1 UNL1     -0.2702
     9 N         -7.99116   1.408451   -7.9896 N.am        1 UNL1     -0.2772
     10 C         -7.684303   2.000474   -6.785993 C.2        1 UNL1     0.1049
     11 C         -6.789681   1.37617   -6.041603 C.2        1 UNL1     0.0801
     12 C         -7.068025   4.194535   -5.754667 C.ar        1 UNL1     0.0753
     13 C         -5.979296   3.506302   -5.130477 C.ar        1 UNL1     0.0305
     14 C         -5.883788   2.048377   -5.150047 C.2        1 UNL1     0.0924
     15 N         -6.273872   0.141136   -6.164736 N.pl3        1 UNL1     -0.3170
     16 C         -5.470122   -0.117533   -4.99969 C.3        1 UNL1     0.1275
     17 N         -5.010002   1.246865   -4.54755 N.2        1 UNL1     -0.2557
     18 C         -6.40589   -0.631553   -3.909817 C.3        1 UNL1     0.0016
     19 C         -7.150474   -1.846016   -4.441103 C.3        1 UNL1     0.0026
     20 N         -6.178234   -2.862319   -4.819132 N.3        1 UNL1     -0.3018
     21 C         -5.195067   -2.440742   -5.819144 C.3        1 UNL1     0.0026
     22 C         -4.455715   -1.222659   -5.262792 C.3        1 UNL1     0.0016
     23 C         -6.780677   -4.159487   -5.053784 C.3        1 UNL1     0.0012
     24 C         -7.260288   -4.275267   -6.509231 C.3        1 UNL1     -0.0339
     25 C         -6.567145   -5.437631   -7.238971 C.3        1 UNL1     -0.0615
     26 C         -8.772384   -4.411958   -6.549967 C.3        1 UNL1     -0.0615
     27 C         -7.217086   5.573704   -5.628995 C.ar        1 UNL1     0.1347
     28 C         -6.366785   6.362577   -4.874861 C.ar        1 UNL1     0.0342
     29 C         -5.274527   5.670637   -4.309747 C.ar        1 UNL1     0.1435
     30 C         -5.092175   4.295046   -4.457117 C.ar        1 UNL1     0.0774
     31 O         -4.419771   6.278222   -3.458137 O.3        1 UNL1     -0.4436
     32 C         -3.781515   5.201453   -2.755236 C.3        1 UNL1     0.3143
     33 C         -3.915356   3.998671   -3.667165 C.2        1 UNL1     0.2504
     34 C         -6.603993   7.796248   -4.489605 C.3        1 UNL1     -0.0327
     35 O         -2.384925   5.512387   -2.677079 O.2        1 UNL1     -0.4528
     36 C         -1.138715   3.905056   0.527845 C.3        1 UNL1     0.0854
     37 C         -1.199802   2.393361   0.973456 C.3        1 UNL1     0.0236
     38 C         0.213601   1.748221   1.370733 C.3        1 UNL1     0.1131
     39 C         1.443558   1.884419   0.385376 C.3        1 UNL1     0.0200
     40 C         1.243274   1.647934   -1.253647 C.3        1 UNL1     0.0661
     41 C         0.469732   0.324089   -1.979373 C.3        1 UNL1     0.0091
     42 C         -0.506014   0.219036   -3.529304 C.3        1 UNL1     0.0661
     43 C         -8.08351   3.379119   -6.466107 C.2        1 UNL1     0.2131
     44 O         -9.217483   3.761991   -6.690275 O.2        1 UNL1     -0.2851
     45 O         -8.278007   6.172194   -6.305525 O.3        1 UNL1     -0.5056
     46 O         -3.199076   3.025325   -3.740618 O.2        1 UNL1     -0.2836
     47 C         0.287241   1.152479   -5.899376 C.3        1 UNL1     -0.0566
     48 O         0.193691   -0.992048   -4.022056 O.3        1 UNL1     -0.3909
     49 C         -0.301917   -0.430989   -0.920171 C.3        1 UNL1     -0.0577
     50 O         0.846241   2.846885   -1.888159 O.3        1 UNL1     -0.3910
     51 O         0.152228   4.447848   0.365751 O.3        1 UNL1     -0.3753
     52 C         -2.283317   1.595373   0.177115 C.3        1 UNL1     -0.0564
     53 O         0.093514   0.449874   2.113835 O.3        1 UNL1     -0.4608
     54 C         1.122587   -0.209879   2.733243 C.2        1 UNL1     0.3042
     55 O         1.726773   -1.201263   2.325867 O.2        1 UNL1     -0.2512
     56 C         1.554828   0.426549   4.023529 C.3        1 UNL1     0.0332
     57 C         2.301189   3.149587   0.856535 C.3        1 UNL1     -0.0567
     58 C         -4.618917   4.955255   -1.478649 C.3        1 UNL1     0.0210
     59 C         0.541956   5.378884   1.374289 C.3        1 UNL1     0.0372
     60 C         -1.898232   4.226634   -0.711059 C.2        1 UNL1     -0.0208
     61 C         -1.555876   4.96468   -1.767859 C.2        1 UNL1     0.0882
     62 H         -1.403951   1.764061   -4.737415 H        1 UNL1     0.0365
     63 H         -2.854039   1.971958   -6.160178 H        1 UNL1     0.0576
     64 H         -2.989882   -0.510131   -7.981594 H        1 UNL1     0.0615
     65 H         -4.713176   2.08867   -7.796255 H        1 UNL1     0.0622
     66 H         -1.639469   4.45234   1.338877 H        1 UNL1     0.0645
     67 H         -1.710414   2.422658   1.951708 H        1 UNL1     0.0362
     68 H         0.46469   2.375947   2.239316 H        1 UNL1     0.0741
     69 H         2.181443   1.136858   0.644385 H        1 UNL1     0.0359
     70 H         2.29888   1.510916   -1.556933 H        1 UNL1     0.0600
     71 H         1.338033   -0.345976   -2.134372 H        1 UNL1     0.0348
     72 H         0.091678   1.138673   -3.608978 H        1 UNL1     0.0602
     73 H         -2.892973   3.868484   -0.613761 H        1 UNL1     0.0628
     74 H         -0.544957   5.319973   -1.970457 H        1 UNL1     0.1022
     75 H         -5.628923   -1.053897   -10.241511 H        1 UNL1     0.0279
     76 H         -7.201485   -0.863847   -9.575006 H        1 UNL1     0.0279
     77 H         -6.627389   0.134083   -10.971375 H        1 UNL1     0.0279
     78 H         -7.981358   0.400712   -7.84662 H        1 UNL1     0.1553
     79 H         -6.700842   -0.589577   -6.70389 H        1 UNL1     0.1484
     80 H         -5.815326   -0.881425   -3.020118 H        1 UNL1     0.0317
     81 H         -7.116743   0.144506   -3.606384 H        1 UNL1     0.0317
     82 H         -7.801135   -1.585874   -5.28897 H        1 UNL1     0.0428
     83 H         -7.813277   -2.195304   -3.648802 H        1 UNL1     0.0428
     84 H         -4.429185   -3.194618   -6.026286 H        1 UNL1     0.0428
     85 H         -5.660147   -2.257065   -6.79755 H        1 UNL1     0.0428
     86 H         -3.660143   -1.024866   -5.957004 H        1 UNL1     0.0317
     87 H         -3.926658   -1.494188   -4.341127 H        1 UNL1     0.0317
     88 H         -6.017231   -4.927961   -4.875204 H        1 UNL1     0.0429
     89 H         -7.600918   -4.351379   -4.35011 H        1 UNL1     0.0429
     90 H         -7.029422   -3.343297   -7.038708 H        1 UNL1     0.0308
     91 H         -5.664271   -5.757357   -6.710108 H        1 UNL1     0.0233
     92 H         -7.244235   -6.2891   -7.339758 H        1 UNL1     0.0233
     93 H         -6.260916   -5.168279   -8.257062 H        1 UNL1     0.0233
     94 H         -9.066011   -5.436222   -6.295992 H        1 UNL1     0.0233
     95 H         -9.228205   -3.739285   -5.818052 H        1 UNL1     0.0233
     96 H         -9.167916   -4.174896   -7.541595 H        1 UNL1     0.0233
     97 H         -6.520786   8.465903   -5.34041 H        1 UNL1     0.0280
     98 H         -7.610521   7.953729   -4.080511 H        1 UNL1     0.0280
     99 H         -5.861901   8.103093   -3.734462 H        1 UNL1     0.0280
     100 H         -8.352754   5.92749   -7.21115 H        1 UNL1     0.2922
     101 H         1.103649   0.988642   -5.196317 H        1 UNL1     0.0236
     102 H         0.32079   2.148212   -6.340253 H        1 UNL1     0.0236
     103 H         0.497616   0.46695   -6.737222 H        1 UNL1     0.0236
     104 H         1.12482   -0.933555   -3.731286 H        1 UNL1     0.2098
     105 H         -1.381926   -0.332272   -0.995321 H        1 UNL1     0.0234
     106 H         -0.024799   -1.479913   -0.81581 H        1 UNL1     0.0234
     107 H         0.0   0.0   0.0 H        1 UNL1     0.0234
     108 H         1.600208   3.152674   -2.42834 H        1 UNL1     0.2098
     109 H         -1.985829   0.552228   0.000875 H        1 UNL1     0.0234
     110 H         -3.270594   1.619797   0.650856 H        1 UNL1     0.0234
     111 H         -2.454646   2.027726   -0.817703 H        1 UNL1     0.0234
     112 H         2.271102   1.228656   3.821234 H        1 UNL1     0.0342
     113 H         0.708945   0.794822   4.602062 H        1 UNL1     0.0342
     114 H         2.064943   -0.335912   4.628179 H        1 UNL1     0.0342
     115 H         3.184836   3.303225   0.221907 H        1 UNL1     0.0234
     116 H         1.740039   4.086053   0.870388 H        1 UNL1     0.0234
     117 H         2.770234   3.018943   1.846924 H        1 UNL1     0.0234
     118 H         -4.682796   3.882557   -1.225185 H        1 UNL1     0.0309
     119 H         -4.248789   5.507343   -0.608932 H        1 UNL1     0.0309
     120 H         -5.667279   5.248843   -1.600507 H        1 UNL1     0.0309
     121 H         0.196188   6.364645   1.064328 H        1 UNL1     0.0524
     122 H         0.079268   5.156516   2.350255 H        1 UNL1     0.0524
     123 H         1.622292   5.379296   1.488171 H        1 UNL1     0.0524
@<TRIPOS>BOND
     1     1     2    1
     2     1    42    1
     3     2     3    2
     4     3     4    1
     5     4     5    2
     6     5     7    1
     7     6    75    1
     8     6    76    1
     9     6    77    1
    10     7     9   am
    11     9    10    1
    12    10    11    2
    13    10    43    1
    14    11    14    1
    15    11    15    1
    16    12    13   ar
    17    12    27   ar
    18    12    43    1
    19    13    14    1
    20    13    30   ar
    21    14    17    2
    22    15    16    1
    23    16    17    1
    24    16    18    1
    25    16    22    1
    26    18    19    1
    27    19    20    1
    28    20    21    1
    29    21    22    1
    30    23    24    1
    31    23    88    1
    32    23    89    1
    33    24    25    1
    34    24    26    1
    35    24    90    1
    36    25    91    1
    37    25    92    1
    38    25    93    1
    39    26    94    1
    40    26    95    1
    41    26    96    1
    42    27    28   ar
    43    28    29   ar
    44    29    30   ar
    45    29    31    1
    46    30    33    1
    47    31    32    1
    48    32    33    1
    49    32    35    1
    50    34    97    1
    51    34    98    1
    52    34    99    1
    53    35    61    1
    54    36    37    1
    55    36    60    1
    56    37    38    1
    57    38    39    1
    58    39    40    1
    59    40    41    1
    60    41    42    1
    61    45   100    1
    62    47   101    1
    63    47   102    1
    64    47   103    1
    65    48   104    1
    66    49   105    1
    67    49   106    1
    68    49   107    1
    69    50   108    1
    70    51    59    1
    71    52   109    1
    72    52   110    1
    73    52   111    1
    74    53    54    1
    75    54    55    2
    76    54    56    1
    77    56   112    1
    78    56   113    1
    79    56   114    1
    80    57   115    1
    81    57   116    1
    82    57   117    1
    83    58   118    1
    84    58   119    1
    85    58   120    1
    86    59   121    1
    87    59   122    1
    88    59   123    1
    89    60    61    2
    90     1    47    1
    91     1    62    1
    92     2    63    1
    93     3    64    1
    94     4    65    1
    95     5     6    1
    96     7     8    2
    97     9    78    1
    98    15    79    1
    99    18    80    1
   100    18    81    1
   101    19    82    1
   102    19    83    1
   103    20    23    1
   104    21    84    1
   105    21    85    1
   106    22    86    1
   107    22    87    1
   108    27    45    1
   109    28    34    1
   110    32    58    1
   111    33    46    2
   112    36    51    1
   113    36    66    1
   114    37    52    1
   115    37    67    1
   116    38    53    1
   117    38    68    1
   118    42    48    1
   119    42    72    1
   120    43    44    2
   121    60    73    1
   122    61    74    1
   123    39    69    1
   124    39    57    1
   125    40    70    1
   126    40    50    1
   127    41    71    1
   128    41    49    1
