@<TRIPOS>MOLECULE
*****
 123 128 0 0 0
SMALL
GASTEIGER

@<TRIPOS>ATOM
     1 C         5.010419   0.993401   1.980053 C.3        1 UNL1     0.0009
     2 C         6.754515   1.471224   1.571578 C.2        1 UNL1     -0.0787
     3 C         8.139335   1.107107   1.357714 C.2        1 UNL1     -0.0649
     4 C         9.405922   2.097851   0.828053 C.2        1 UNL1     -0.0542
     5 C         10.696035   2.119845   0.243071 C.2        1 UNL1     0.0115
     6 C         11.904585   1.23461   -0.168132 C.3        1 UNL1     -0.0348
     7 C         11.228153   3.484677   -0.413491 C.2        1 UNL1     0.2441
     8 O         12.030663   4.22188   0.142417 O.2        1 UNL1     -0.2702
     9 N         10.91391   3.64535   -1.774221 N.am        1 UNL1     -0.2772
     10 C         9.684913   4.24782   -1.915352 C.2        1 UNL1     0.1049
     11 C         8.633907   3.452216   -1.833982 C.2        1 UNL1     0.0801
     12 C         8.32467   6.189976   -1.118419 C.ar        1 UNL1     0.0753
     13 C         7.280655   5.248252   -0.850468 C.ar        1 UNL1     0.0305
     14 C         7.355739   3.86763   -1.323008 C.2        1 UNL1     0.0924
     15 N         8.563753   2.110009   -1.843393 N.pl3        1 UNL1     -0.3170
     16 C         7.17383   1.743071   -1.904429 C.3        1 UNL1     0.1275
     17 N         6.449632   2.896471   -1.2541 N.2        1 UNL1     -0.2557
     18 C         6.765478   1.761342   -3.374332 C.3        1 UNL1     0.0016
     19 C         7.693057   0.8382   -4.14828 C.3        1 UNL1     0.0026
     20 N         7.588404   -0.503694   -3.592046 N.3        1 UNL1     -0.3018
     21 C         7.902445   -0.611765   -2.165838 C.3        1 UNL1     0.0026
     22 C         6.955919   0.320117   -1.407169 C.3        1 UNL1     0.0016
     23 C         8.195624   -1.513112   -4.436441 C.3        1 UNL1     0.0012
     24 C         7.355439   -1.731012   -5.704654 C.3        1 UNL1     -0.0339
     25 C         7.402559   -3.197138   -6.165428 C.3        1 UNL1     -0.0615
     26 C         5.929203   -1.264025   -5.471088 C.3        1 UNL1     -0.0615
     27 C         8.192557   7.532302   -0.770816 C.ar        1 UNL1     0.1347
     28 C         7.051715   8.056151   -0.189344 C.ar        1 UNL1     0.0342
     29 C         6.056546   7.101469   0.109629 C.ar        1 UNL1     0.1435
     30 C         6.189706   5.74733   -0.199879 C.ar        1 UNL1     0.0774
     31 O         4.843645   7.470307   0.576358 O.3        1 UNL1     -0.4436
     32 C         3.993893   6.345021   0.307049 C.3        1 UNL1     0.3143
     33 C         4.929828   5.157867   0.202625 C.2        1 UNL1     0.2504
     34 C         6.73967   9.516968   -0.01981 C.3        1 UNL1     -0.0327
     35 O         3.182815   6.135831   1.469651 O.2        1 UNL1     -0.4528
     36 C         -0.07614   4.651102   0.211523 C.3        1 UNL1     0.0854
     37 C         -0.313015   3.342798   -0.63686 C.3        1 UNL1     0.0236
     38 C         -1.33436   2.29127   0.013438 C.3        1 UNL1     0.1131
     39 C         -1.139217   1.8328   1.514769 C.3        1 UNL1     0.0200
     40 C         0.379891   1.458349   2.09316 C.3        1 UNL1     0.0661
     41 C         1.496377   0.41774   1.352755 C.3        1 UNL1     0.0091
     42 C         3.330351   0.458131   1.335059 C.3        1 UNL1     0.0661
     43 C         9.516382   5.707561   -1.859606 C.2        1 UNL1     0.2131
     44 O         10.265092   6.4403   -2.480302 O.2        1 UNL1     -0.2851
     45 O         9.273488   8.373935   -1.025139 O.3        1 UNL1     -0.5056
     46 O         4.694402   3.990993   0.423606 O.2        1 UNL1     -0.2836
     47 C         4.873406   0.698946   3.498113 C.3        1 UNL1     -0.0566
     48 O         3.478737   -0.980407   1.663242 O.3        1 UNL1     -0.3909
     49 C         1.047223   0.150095   -0.066442 C.3        1 UNL1     -0.0577
     50 O         1.037666   2.61827   2.561818 O.3        1 UNL1     -0.3910
     51 O         -0.64483   4.660253   1.50146 O.3        1 UNL1     -0.3753
     52 C         0.984977   2.889243   -1.381477 C.3        1 UNL1     -0.0564
     53 O         -1.810298   1.242538   -0.948835 O.3        1 UNL1     -0.4608
     54 C         -2.037902   -0.073518   -0.642039 C.2        1 UNL1     0.3042
     55 O         -1.315539   -1.035933   -0.89853 O.2        1 UNL1     -0.2512
     56 C         -3.298398   -0.298596   0.143584 C.3        1 UNL1     0.0332
     57 C         -2.077648   2.753245   2.425979 C.3        1 UNL1     -0.0567
     58 C         3.355662   6.600479   -1.078206 C.3        1 UNL1     0.0210
     59 C         -0.371847   5.831959   2.268566 C.3        1 UNL1     0.0372
     60 C         1.349291   5.049626   0.368009 C.2        1 UNL1     -0.0208
     61 C         2.019413   5.457636   1.44653 C.2        1 UNL1     0.0882
     62 H         4.710616   2.03838   1.835664 H        1 UNL1     0.0365
     63 H         6.658013   2.55695   1.505575 H        1 UNL1     0.0576
     64 H         8.465351   0.064656   1.368547 H        1 UNL1     0.0615
     65 H         9.005417   3.110053   0.930658 H        1 UNL1     0.0622
     66 H         -0.549759   5.450401   -0.375719 H        1 UNL1     0.0645
     67 H         -0.885915   3.691817   -1.513518 H        1 UNL1     0.0362
     68 H         -2.251394   2.900012   0.011108 H        1 UNL1     0.0741
     69 H         -1.686095   0.912608   1.671545 H        1 UNL1     0.0359
     70 H         0.103442   0.906787   3.012081 H        1 UNL1     0.0600
     71 H         1.229576   -0.536258   1.848399 H        1 UNL1     0.0348
     72 H         3.021618   1.077479   2.189698 H        1 UNL1     0.0602
     73 H         1.806604   5.094087   -0.589141 H        1 UNL1     0.0628
     74 H         1.64378   5.389949   2.468076 H        1 UNL1     0.1022
     75 H         12.591803   1.082186   0.698778 H        1 UNL1     0.0279
     76 H         11.678252   0.21441   -0.469849 H        1 UNL1     0.0279
     77 H         12.570791   1.732239   -0.888017 H        1 UNL1     0.0279
     78 H         10.861339   2.733323   -2.223131 H        1 UNL1     0.1553
     79 H         9.298231   1.516252   -2.182402 H        1 UNL1     0.1484
     80 H         5.719915   1.441332   -3.458935 H        1 UNL1     0.0317
     81 H         6.816493   2.776643   -3.782024 H        1 UNL1     0.0317
     82 H         8.73322   1.195322   -4.1274 H        1 UNL1     0.0428
     83 H         7.385374   0.867615   -5.193993 H        1 UNL1     0.0428
     84 H         7.739223   -1.613122   -1.755407 H        1 UNL1     0.0428
     85 H         8.963751   -0.410665   -1.964578 H        1 UNL1     0.0428
     86 H         7.122537   0.116681   -0.365612 H        1 UNL1     0.0317
     87 H         5.91646   0.006934   -1.563813 H        1 UNL1     0.0317
     88 H         9.190614   -1.156569   -4.733371 H        1 UNL1     0.0429
     89 H         8.340859   -2.454517   -3.891064 H        1 UNL1     0.0429
     90 H         7.749464   -1.099209   -6.509504 H        1 UNL1     0.0308
     91 H         7.250986   -3.882806   -5.326388 H        1 UNL1     0.0233
     92 H         6.641897   -3.387612   -6.926166 H        1 UNL1     0.0233
     93 H         8.364307   -3.460728   -6.62193 H        1 UNL1     0.0233
     94 H         5.251673   -1.749355   -6.181893 H        1 UNL1     0.0233
     95 H         5.608238   -1.534212   -4.461166 H        1 UNL1     0.0233
     96 H         5.83907   -0.180892   -5.592197 H        1 UNL1     0.0233
     97 H         5.814692   9.796226   -0.515452 H        1 UNL1     0.0280
     98 H         6.610616   9.792878   1.03493 H        1 UNL1     0.0280
     99 H         7.55675   10.120907   -0.447284 H        1 UNL1     0.0280
     100 H         10.102738   8.048904   -0.721294 H        1 UNL1     0.2922
     101 H         3.82608   0.76421   3.792229 H        1 UNL1     0.0236
     102 H         5.511859   1.329165   4.116325 H        1 UNL1     0.0236
     103 H         5.170533   -0.333212   3.748228 H        1 UNL1     0.0236
     104 H         2.783576   -1.208365   2.311128 H        1 UNL1     0.2098
     105 H         1.222415   0.972411   -0.755583 H        1 UNL1     0.0234
     106 H         1.414205   -0.783919   -0.49173 H        1 UNL1     0.0234
     107 H         0.0   -0.0   0.0 H        1 UNL1     0.0234
     108 H         1.981487   2.392382   2.671103 H        1 UNL1     0.2098
     109 H         1.347211   3.650028   -2.086958 H        1 UNL1     0.0234
     110 H         1.794852   2.605593   -0.700749 H        1 UNL1     0.0234
     111 H         0.812681   1.985674   -1.98133 H        1 UNL1     0.0234
     112 H         -4.110667   0.302854   -0.275728 H        1 UNL1     0.0342
     113 H         -3.572916   -1.351594   0.184558 H        1 UNL1     0.0342
     114 H         -3.125528   0.040678   1.174202 H        1 UNL1     0.0342
     115 H         -2.462416   2.2071   3.298256 H        1 UNL1     0.0234
     116 H         -1.589584   3.657873   2.794069 H        1 UNL1     0.0234
     117 H         -3.017237   3.051114   1.929606 H        1 UNL1     0.0234
     118 H         2.274874   6.813481   -1.003817 H        1 UNL1     0.0309
     119 H         3.842608   7.408643   -1.633145 H        1 UNL1     0.0309
     120 H         3.395315   5.719545   -1.728199 H        1 UNL1     0.0309
     121 H         -0.435184   5.558826   3.321534 H        1 UNL1     0.0524
     122 H         0.643066   6.22343   2.087624 H        1 UNL1     0.0524
     123 H         -1.095567   6.608785   2.038644 H        1 UNL1     0.0524
@<TRIPOS>BOND
     1     1     2    1
     2     1    42    1
     3     2     3    2
     4     3     4    1
     5     4     5    2
     6     5     7    1
     7     6    75    1
     8     6    76    1
     9     6    77    1
    10     7     9   am
    11     9    10    1
    12    10    11    2
    13    10    43    1
    14    11    14    1
    15    11    15    1
    16    12    13   ar
    17    12    27   ar
    18    12    43    1
    19    13    14    1
    20    13    30   ar
    21    14    17    2
    22    15    16    1
    23    16    17    1
    24    16    18    1
    25    16    22    1
    26    18    19    1
    27    19    20    1
    28    20    21    1
    29    21    22    1
    30    23    24    1
    31    23    88    1
    32    23    89    1
    33    24    25    1
    34    24    26    1
    35    24    90    1
    36    25    91    1
    37    25    92    1
    38    25    93    1
    39    26    94    1
    40    26    95    1
    41    26    96    1
    42    27    28   ar
    43    28    29   ar
    44    29    30   ar
    45    29    31    1
    46    30    33    1
    47    31    32    1
    48    32    33    1
    49    32    35    1
    50    34    97    1
    51    34    98    1
    52    34    99    1
    53    35    61    1
    54    36    37    1
    55    36    60    1
    56    37    38    1
    57    38    39    1
    58    39    40    1
    59    40    41    1
    60    41    42    1
    61    45   100    1
    62    47   101    1
    63    47   102    1
    64    47   103    1
    65    48   104    1
    66    49   105    1
    67    49   106    1
    68    49   107    1
    69    50   108    1
    70    51    59    1
    71    52   109    1
    72    52   110    1
    73    52   111    1
    74    53    54    1
    75    54    55    2
    76    54    56    1
    77    56   112    1
    78    56   113    1
    79    56   114    1
    80    57   115    1
    81    57   116    1
    82    57   117    1
    83    58   118    1
    84    58   119    1
    85    58   120    1
    86    59   121    1
    87    59   122    1
    88    59   123    1
    89    60    61    2
    90     1    47    1
    91     1    62    1
    92     2    63    1
    93     3    64    1
    94     4    65    1
    95     5     6    1
    96     7     8    2
    97     9    78    1
    98    15    79    1
    99    18    80    1
   100    18    81    1
   101    19    82    1
   102    19    83    1
   103    20    23    1
   104    21    84    1
   105    21    85    1
   106    22    86    1
   107    22    87    1
   108    27    45    1
   109    28    34    1
   110    32    58    1
   111    33    46    2
   112    36    51    1
   113    36    66    1
   114    37    52    1
   115    37    67    1
   116    38    53    1
   117    38    68    1
   118    42    48    1
   119    42    72    1
   120    43    44    2
   121    60    73    1
   122    61    74    1
   123    39    69    1
   124    39    57    1
   125    40    70    1
   126    40    50    1
   127    41    71    1
   128    41    49    1
