@<TRIPOS>MOLECULE
*****
 123 128 0 0 0
SMALL
GASTEIGER

@<TRIPOS>ATOM
     1 C         -2.434814   0.453283   3.468658 C.3        1 UNL1     0.0009
     2 C         -4.275453   0.577016   3.65243 C.2        1 UNL1     -0.0787
     3 C         -5.485939   1.371127   3.664988 C.2        1 UNL1     -0.0649
     4 C         -7.085046   0.828744   3.787601 C.2        1 UNL1     -0.0542
     5 C         -8.443695   1.158574   3.558766 C.2        1 UNL1     0.0115
     6 C         -9.409933   2.315822   3.183958 C.3        1 UNL1     -0.0348
     7 C         -9.531953   -0.020576   3.510934 C.2        1 UNL1     0.2441
     8 O         -10.284107   -0.270112   4.44288 O.2        1 UNL1     -0.2702
     9 N         -9.742433   -0.576479   2.237034 N.am        1 UNL1     -0.2772
     10 C         -8.857459   -1.605334   2.00988 C.2        1 UNL1     0.1049
     11 C         -7.655753   -1.256778   1.587229 C.2        1 UNL1     0.0801
     12 C         -7.933412   -3.690258   3.037772 C.ar        1 UNL1     0.0753
     13 C         -6.634544   -3.166663   2.742138 C.ar        1 UNL1     0.0305
     14 C         -6.458467   -1.99353   1.889022 C.2        1 UNL1     0.0924
     15 N         -7.208117   -0.071706   1.13806 N.pl3        1 UNL1     -0.3170
     16 C         -5.872154   -0.26654   0.640569 C.3        1 UNL1     0.1275
     17 N         -5.340466   -1.435512   1.433371 N.2        1 UNL1     -0.2557
     18 C         -5.99271   -0.752138   -0.800737 C.3        1 UNL1     0.0016
     19 C         -6.814389   0.257069   -1.586825 C.3        1 UNL1     0.0026
     20 N         -6.150131   1.551608   -1.523905 N.3        1 UNL1     -0.3018
     21 C         -5.933166   2.074074   -0.173229 C.3        1 UNL1     0.0026
     22 C         -5.101987   1.046664   0.597137 C.3        1 UNL1     0.0016
     23 C         -6.681905   2.505236   -2.477032 C.3        1 UNL1     0.0012
     24 C         -7.886097   3.249792   -1.879275 C.3        1 UNL1     -0.0339
     25 C         -8.832553   2.288038   -1.142181 C.3        1 UNL1     -0.0615
     26 C         -7.407744   4.368989   -0.970782 C.3        1 UNL1     -0.0615
     27 C         -8.088154   -4.876893   3.750563 C.ar        1 UNL1     0.1347
     28 C         -7.022545   -5.645668   4.183589 C.ar        1 UNL1     0.0342
     29 C         -5.753681   -5.085608   3.923818 C.ar        1 UNL1     0.1435
     30 C         -5.583963   -3.87966   3.242565 C.ar        1 UNL1     0.0774
     31 O         -4.616165   -5.765747   4.185496 O.3        1 UNL1     -0.4436
     32 C         -3.615363   -5.120866   3.383376 C.3        1 UNL1     0.3143
     33 C         -4.148523   -3.724992   3.131404 C.2        1 UNL1     0.2504
     34 C         -7.108141   -7.04439   4.72797 C.3        1 UNL1     -0.0327
     35 O         -2.443854   -4.979551   4.196302 O.2        1 UNL1     -0.4528
     36 C         0.502868   -5.113559   1.807378 C.3        1 UNL1     0.0854
     37 C         0.815242   -4.202362   0.558512 C.3        1 UNL1     0.0236
     38 C         2.250947   -3.488367   0.585031 C.3        1 UNL1     0.1131
     39 C         2.700699   -2.676864   1.866224 C.3        1 UNL1     0.0200
     40 C         1.632503   -1.652269   2.635378 C.3        1 UNL1     0.0661
     41 C         0.685866   -0.459882   1.887245 C.3        1 UNL1     0.0091
     42 C         -0.980992   0.176987   2.313139 C.3        1 UNL1     0.0661
     43 C         -9.109167   -2.974731   2.482903 C.2        1 UNL1     0.2131
     44 O         -10.197894   -3.494885   2.31904 O.2        1 UNL1     -0.2851
     45 O         -9.386842   -5.29345   4.035746 O.3        1 UNL1     -0.5056
     46 O         -3.527255   -2.709513   2.910765 O.2        1 UNL1     -0.2836
     47 C         -1.728213   0.99753   4.739285 C.3        1 UNL1     -0.0566
     48 O         -0.591256   1.602921   2.195094 O.3        1 UNL1     -0.3909
     49 C         0.701224   -0.69117   0.392667 C.3        1 UNL1     -0.0577
     50 O         0.859794   -2.356171   3.58678 O.3        1 UNL1     -0.3910
     51 O         1.435129   -5.052493   2.86312 O.3        1 UNL1     -0.3753
     52 C         -0.465558   -3.474416   0.034492 C.3        1 UNL1     -0.0564
     53 O         2.665969   -2.924695   -0.742507 O.3        1 UNL1     -0.4608
     54 C         2.106637   -1.832443   -1.352476 C.2        1 UNL1     0.3042
     55 O         2.587072   -1.157277   -2.261965 O.2        1 UNL1     -0.2512
     56 C         0.729351   -1.503203   -0.851078 C.3        1 UNL1     0.0332
     57 C         3.577977   -3.657916   2.775122 C.3        1 UNL1     -0.0567
     58 C         -3.56989   -5.887374   2.041017 C.3        1 UNL1     0.0210
     59 C         1.312223   -6.092523   3.832191 C.3        1 UNL1     0.0372
     60 C         -0.842816   -4.91349   2.410922 C.2        1 UNL1     -0.0208
     61 C         -1.209275   -4.801233   3.688362 C.2        1 UNL1     0.0882
     62 H         -2.514377   -0.633085   3.595886 H        1 UNL1     0.0365
     63 H         -4.523892   -0.454132   3.912203 H        1 UNL1     0.0576
     64 H         -5.474523   2.435968   3.421902 H        1 UNL1     0.0615
     65 H         -6.983496   -0.2117   4.107986 H        1 UNL1     0.0622
     66 H         0.505203   -6.137973   1.409112 H        1 UNL1     0.0645
     67 H         0.941898   -4.91917   -0.271371 H        1 UNL1     0.0362
     68 H         2.899111   -4.377639   0.560518 H        1 UNL1     0.0741
     69 H         3.509753   -2.013231   1.591574 H        1 UNL1     0.0359
     70 H         2.342076   -1.056889   3.241257 H        1 UNL1     0.0600
     71 H         1.364037   0.411102   1.979054 H        1 UNL1     0.0348
     72 H         -0.601647   -0.311681   3.222324 H        1 UNL1     0.0602
     73 H         -1.581148   -4.992071   1.652015 H        1 UNL1     0.0628
     74 H         -0.516555   -4.657557   4.518261 H        1 UNL1     0.1022
     75 H         -10.456018   2.065977   3.484489 H        1 UNL1     0.0279
     76 H         -9.243693   3.267637   3.683439 H        1 UNL1     0.0279
     77 H         -9.520909   2.441999   2.097006 H        1 UNL1     0.0279
     78 H         -9.579123   0.131143   1.523816 H        1 UNL1     0.1553
     79 H         -7.80848   0.6627   0.810728 H        1 UNL1     0.1484
     80 H         -4.987737   -0.86733   -1.224441 H        1 UNL1     0.0317
     81 H         -6.465646   -1.739159   -0.842835 H        1 UNL1     0.0317
     82 H         -7.846143   0.322928   -1.211248 H        1 UNL1     0.0428
     83 H         -6.889449   -0.109572   -2.611028 H        1 UNL1     0.0428
     84 H         -5.362445   3.007654   -0.150479 H        1 UNL1     0.0428
     85 H         -6.879661   2.327806   0.323847 H        1 UNL1     0.0428
     86 H         -4.851167   1.517586   1.529504 H        1 UNL1     0.0317
     87 H         -4.128124   0.911956   0.110783 H        1 UNL1     0.0317
     88 H         -5.895418   3.237177   -2.702854 H        1 UNL1     0.0429
     89 H         -6.948173   2.016996   -3.42334 H        1 UNL1     0.0429
     90 H         -8.443944   3.737693   -2.687342 H        1 UNL1     0.0308
     91 H         -8.394085   1.941631   -0.201516 H        1 UNL1     0.0233
     92 H         -9.790065   2.771594   -0.93493 H        1 UNL1     0.0233
     93 H         -9.063271   1.39392   -1.733921 H        1 UNL1     0.0233
     94 H         -6.418318   4.130118   -0.566043 H        1 UNL1     0.0233
     95 H         -7.324191   5.300464   -1.537646 H        1 UNL1     0.0233
     96 H         -8.094749   4.525197   -0.134367 H        1 UNL1     0.0233
     97 H         -6.725057   -7.111155   5.741883 H        1 UNL1     0.0280
     98 H         -8.142935   -7.408288   4.773108 H        1 UNL1     0.0280
     99 H         -6.52   -7.725009   4.090833 H        1 UNL1     0.0280
     100 H         -9.520128   -6.223551   3.983121 H        1 UNL1     0.2922
     101 H         -2.234573   0.625169   5.629568 H        1 UNL1     0.0236
     102 H         -1.634473   2.082957   4.745942 H        1 UNL1     0.0236
     103 H         -0.693935   0.62559   4.829406 H        1 UNL1     0.0236
     104 H         0.051192   1.792967   2.90651 H        1 UNL1     0.2098
     105 H         1.660093   -0.498183   -0.08182 H        1 UNL1     0.0234
     106 H         0.311885   -1.659216   0.07766 H        1 UNL1     0.0234
     107 H         0.0   0.0   0.0 H        1 UNL1     0.0234
     108 H         1.437655   -2.537512   4.352913 H        1 UNL1     0.2098
     109 H         -0.725046   -3.775088   -0.99019 H        1 UNL1     0.0234
     110 H         -1.334757   -3.609403   0.68719 H        1 UNL1     0.0234
     111 H         -0.326184   -2.385734   -0.001474 H        1 UNL1     0.0234
     112 H         0.396483   -0.551172   -1.275556 H        1 UNL1     0.0342
     113 H         0.015191   -2.297109   -1.064464 H        1 UNL1     0.0342
     114 H         0.780435   -1.385878   0.240155 H        1 UNL1     0.0342
     115 H         4.584337   -3.255939   2.956345 H        1 UNL1     0.0234
     116 H         3.132814   -3.879179   3.747193 H        1 UNL1     0.0234
     117 H         3.816821   -4.616786   2.283732 H        1 UNL1     0.0234
     118 H         -2.853885   -5.437804   1.330926 H        1 UNL1     0.0309
     119 H         -3.336161   -6.950027   2.160777 H        1 UNL1     0.0309
     120 H         -4.521816   -5.845312   1.500487 H        1 UNL1     0.0309
     121 H         0.712106   -5.706549   4.655745 H        1 UNL1     0.0524
     122 H         0.793873   -6.979227   3.430811 H        1 UNL1     0.0524
     123 H         2.293557   -6.39002   4.190762 H        1 UNL1     0.0524
@<TRIPOS>BOND
     1     1     2    1
     2     1    42    1
     3     2     3    2
     4     3     4    1
     5     4     5    2
     6     5     7    1
     7     6    75    1
     8     6    76    1
     9     6    77    1
    10     7     9   am
    11     9    10    1
    12    10    11    2
    13    10    43    1
    14    11    14    1
    15    11    15    1
    16    12    13   ar
    17    12    27   ar
    18    12    43    1
    19    13    14    1
    20    13    30   ar
    21    14    17    2
    22    15    16    1
    23    16    17    1
    24    16    18    1
    25    16    22    1
    26    18    19    1
    27    19    20    1
    28    20    21    1
    29    21    22    1
    30    23    24    1
    31    23    88    1
    32    23    89    1
    33    24    25    1
    34    24    26    1
    35    24    90    1
    36    25    91    1
    37    25    92    1
    38    25    93    1
    39    26    94    1
    40    26    95    1
    41    26    96    1
    42    27    28   ar
    43    28    29   ar
    44    29    30   ar
    45    29    31    1
    46    30    33    1
    47    31    32    1
    48    32    33    1
    49    32    35    1
    50    34    97    1
    51    34    98    1
    52    34    99    1
    53    35    61    1
    54    36    37    1
    55    36    60    1
    56    37    38    1
    57    38    39    1
    58    39    40    1
    59    40    41    1
    60    41    42    1
    61    45   100    1
    62    47   101    1
    63    47   102    1
    64    47   103    1
    65    48   104    1
    66    49   105    1
    67    49   106    1
    68    49   107    1
    69    50   108    1
    70    51    59    1
    71    52   109    1
    72    52   110    1
    73    52   111    1
    74    53    54    1
    75    54    55    2
    76    54    56    1
    77    56   112    1
    78    56   113    1
    79    56   114    1
    80    57   115    1
    81    57   116    1
    82    57   117    1
    83    58   118    1
    84    58   119    1
    85    58   120    1
    86    59   121    1
    87    59   122    1
    88    59   123    1
    89    60    61    2
    90     1    47    1
    91     1    62    1
    92     2    63    1
    93     3    64    1
    94     4    65    1
    95     5     6    1
    96     7     8    2
    97     9    78    1
    98    15    79    1
    99    18    80    1
   100    18    81    1
   101    19    82    1
   102    19    83    1
   103    20    23    1
   104    21    84    1
   105    21    85    1
   106    22    86    1
   107    22    87    1
   108    27    45    1
   109    28    34    1
   110    32    58    1
   111    33    46    2
   112    36    51    1
   113    36    66    1
   114    37    52    1
   115    37    67    1
   116    38    53    1
   117    38    68    1
   118    42    48    1
   119    42    72    1
   120    43    44    2
   121    60    73    1
   122    61    74    1
   123    39    69    1
   124    39    57    1
   125    40    70    1
   126    40    50    1
   127    41    71    1
   128    41    49    1
