@<TRIPOS>MOLECULE
*****
 123 128 0 0 0
SMALL
GASTEIGER

@<TRIPOS>ATOM
     1 C         4.369174   2.454687   -1.588055 C.3        1 UNL1     0.0009
     2 C         5.540081   2.49222   -3.024929 C.2        1 UNL1     -0.0787
     3 C         6.85773   2.259639   -3.577879 C.2        1 UNL1     -0.0649
     4 C         7.34706   2.394414   -5.193041 C.2        1 UNL1     -0.0542
     5 C         8.325425   2.015965   -6.145227 C.2        1 UNL1     0.0115
     6 C         9.714981   1.343699   -6.319911 C.3        1 UNL1     -0.0348
     7 C         7.982472   2.15205   -7.70755 C.2        1 UNL1     0.2441
     8 O         8.401329   3.066748   -8.403547 O.2        1 UNL1     -0.2702
     9 N         7.387265   1.01499   -8.281112 N.am        1 UNL1     -0.2772
     10 C         6.019231   1.067878   -8.143236 C.2        1 UNL1     0.1049
     11 C         5.534611   0.656884   -6.985458 C.2        1 UNL1     0.0801
     12 C         4.048527   2.571715   -8.478097 C.ar        1 UNL1     0.0753
     13 C         3.676225   2.253414   -7.133223 C.ar        1 UNL1     0.0305
     14 C         4.336519   1.182952   -6.389467 C.2        1 UNL1     0.0924
     15 N         6.137156   -0.00522   -5.982919 N.pl3        1 UNL1     -0.3170
     16 C         5.126512   -0.365149   -5.024115 C.3        1 UNL1     0.1275
     17 N         4.059569   0.689964   -5.185644 N.2        1 UNL1     -0.2557
     18 C         4.501821   -1.67477   -5.495662 C.3        1 UNL1     0.0016
     19 C         5.605085   -2.70751   -5.66253 C.3        1 UNL1     0.0026
     20 N         6.281559   -2.880002   -4.384384 N.3        1 UNL1     -0.3018
     21 C         6.862545   -1.660559   -3.818891 C.3        1 UNL1     0.0026
     22 C         5.736066   -0.638681   -3.655476 C.3        1 UNL1     0.0016
     23 C         7.14242   -4.045629   -4.354739 C.3        1 UNL1     0.0012
     24 C         8.539744   -3.697016   -4.891125 C.3        1 UNL1     -0.0339
     25 C         9.164746   -4.882576   -5.644702 C.3        1 UNL1     -0.0615
     26 C         8.468037   -2.455566   -5.763158 C.3        1 UNL1     -0.0615
     27 C         3.335882   3.509559   -9.221538 C.ar        1 UNL1     0.1347
     28 C         2.213725   4.162154   -8.743068 C.ar        1 UNL1     0.0342
     29 C         1.895006   3.869184   -7.40003 C.ar        1 UNL1     0.1435
     30 C         2.621348   2.958922   -6.63122 C.ar        1 UNL1     0.0774
     31 O         0.76732   4.340345   -6.824411 O.3        1 UNL1     -0.4436
     32 C         0.552662   3.483691   -5.692625 C.3        1 UNL1     0.3143
     33 C         1.915995   2.907559   -5.367651 C.2        1 UNL1     0.2504
     34 C         1.25704   4.985246   -9.559997 C.3        1 UNL1     -0.0327
     35 O         0.179495   4.319698   -4.590314 O.2        1 UNL1     -0.4528
     36 C         -2.085161   2.203443   -2.399221 C.3        1 UNL1     0.0854
     37 C         -1.794401   0.811368   -1.717232 C.3        1 UNL1     0.0236
     38 C         -2.023241   0.775253   -0.130389 C.3        1 UNL1     0.1131
     39 C         -1.356234   1.880026   0.784405 C.3        1 UNL1     0.0200
     40 C         0.225445   2.345062   0.530495 C.3        1 UNL1     0.0661
     41 C         1.553452   1.302523   0.365813 C.3        1 UNL1     0.0091
     42 C         3.088517   1.477844   -0.623248 C.3        1 UNL1     0.0661
     43 C         5.164218   1.804741   -9.085752 C.2        1 UNL1     0.2131
     44 O         5.324494   1.687427   -10.287121 O.2        1 UNL1     -0.2851
     45 O         3.791547   3.794903   -10.50699 O.3        1 UNL1     -0.5056
     46 O         2.333506   2.51526   -4.301049 O.2        1 UNL1     -0.2836
     47 C         4.675891   3.622121   -0.611836 C.3        1 UNL1     -0.0566
     48 O         3.986107   1.083733   0.489462 O.3        1 UNL1     -0.3909
     49 C         1.044779   -0.104642   0.145282 C.3        1 UNL1     -0.0577
     50 O         0.296294   3.374129   -0.4358 O.3        1 UNL1     -0.3910
     51 O         -2.337096   3.278302   -1.522502 O.3        1 UNL1     -0.3753
     52 C         -0.603309   0.06525   -2.402475 C.3        1 UNL1     -0.0564
     53 O         -2.084812   -0.613152   0.436063 O.3        1 UNL1     -0.4608
     54 C         -1.607768   -1.743125   -0.1751 C.2        1 UNL1     0.3042
     55 O         -0.749305   -2.515822   0.24895 O.2        1 UNL1     -0.2512
     56 C         -2.284925   -2.052651   -1.479848 C.3        1 UNL1     0.0332
     57 C         -2.442295   3.030009   1.021445 C.3        1 UNL1     -0.0567
     58 C         -0.369193   2.340731   -6.177759 C.3        1 UNL1     0.0210
     59 C         -3.694199   3.71749   -1.487108 C.3        1 UNL1     0.0372
     60 C         -1.042522   2.665059   -3.355765 C.2        1 UNL1     -0.0208
     61 C         -0.477798   3.863824   -3.50674 C.2        1 UNL1     0.0882
     62 H         3.571186   2.80493   -2.25383 H        1 UNL1     0.0365
     63 H         4.909007   2.949374   -3.789929 H        1 UNL1     0.0576
     64 H         7.652327   1.796734   -2.988436 H        1 UNL1     0.0615
     65 H         6.524869   2.934578   -5.670229 H        1 UNL1     0.0622
     66 H         -2.99027   2.033232   -2.999098 H        1 UNL1     0.0645
     67 H         -2.614056   0.162627   -2.072001 H        1 UNL1     0.0362
     68 H         -3.103937   0.981192   -0.095656 H        1 UNL1     0.0741
     69 H         -1.337104   1.521697   1.805014 H        1 UNL1     0.0359
     70 H         0.431337   2.853614   1.491766 H        1 UNL1     0.0600
     71 H         1.889219   1.249199   1.420031 H        1 UNL1     0.0348
     72 H         2.676079   2.492131   -0.521107 H        1 UNL1     0.0602
     73 H         -0.850907   1.895519   -4.061696 H        1 UNL1     0.0628
     74 H         -0.576753   4.68588   -2.797042 H        1 UNL1     0.1022
     75 H         10.53002   2.042835   -6.01339 H        1 UNL1     0.0279
     76 H         9.911957   0.46957   -5.703333 H        1 UNL1     0.0279
     77 H         9.970097   1.162276   -7.374284 H        1 UNL1     0.0279
     78 H         7.71164   0.179198   -7.799127 H        1 UNL1     0.1553
     79 H         6.992934   -0.51829   -6.089391 H        1 UNL1     0.1484
     80 H         3.75625   -2.000436   -4.760249 H        1 UNL1     0.0317
     81 H         3.968462   -1.535422   -6.442109 H        1 UNL1     0.0317
     82 H         6.316063   -2.419951   -6.45103 H        1 UNL1     0.0428
     83 H         5.137957   -3.632881   -6.000952 H        1 UNL1     0.0428
     84 H         7.294169   -1.801273   -2.823044 H        1 UNL1     0.0428
     85 H         7.701631   -1.289164   -4.423307 H        1 UNL1     0.0428
     86 H         6.168649   0.185966   -3.119922 H        1 UNL1     0.0317
     87 H         4.979137   -1.023233   -2.961017 H        1 UNL1     0.0317
     88 H         7.240053   -4.371643   -3.310959 H        1 UNL1     0.0429
     89 H         6.701219   -4.881491   -4.912817 H        1 UNL1     0.0429
     90 H         9.192296   -3.43486   -4.049899 H        1 UNL1     0.0308
     91 H         8.448762   -5.335966   -6.336731 H        1 UNL1     0.0233
     92 H         10.048926   -4.563514   -6.201508 H        1 UNL1     0.0233
     93 H         9.500098   -5.677665   -4.967791 H        1 UNL1     0.0233
     94 H         9.32694   -2.420754   -6.442061 H        1 UNL1     0.0233
     95 H         7.558896   -2.477625   -6.37056 H        1 UNL1     0.0233
     96 H         8.46735   -1.543527   -5.159708 H        1 UNL1     0.0233
     97 H         1.700027   5.922006   -9.884762 H        1 UNL1     0.0280
     98 H         0.943504   4.46758   -10.475952 H        1 UNL1     0.0280
     99 H         0.362412   5.216149   -8.958814 H        1 UNL1     0.0280
     100 H         3.446831   3.232721   -11.178365 H        1 UNL1     0.2922
     101 H         3.926167   4.404575   -0.727326 H        1 UNL1     0.0236
     102 H         5.689498   4.009013   -0.711326 H        1 UNL1     0.0236
     103 H         4.595971   3.311499   0.443304 H        1 UNL1     0.0236
     104 H         3.423283   0.794072   1.233973 H        1 UNL1     0.2098
     105 H         1.454947   -0.598092   -0.732261 H        1 UNL1     0.0234
     106 H         1.119174   -0.75728   1.015027 H        1 UNL1     0.0234
     107 H         -0.0   0.0   0.0 H        1 UNL1     0.0234
     108 H         1.235155   3.629845   -0.518964 H        1 UNL1     0.2098
     109 H         -0.762513   -1.02127   -2.445361 H        1 UNL1     0.0234
     110 H         -0.379246   0.442638   -3.406028 H        1 UNL1     0.0234
     111 H         0.334773   0.2066   -1.84933 H        1 UNL1     0.0234
     112 H         -1.873824   -2.974181   -1.903079 H        1 UNL1     0.0342
     113 H         -3.366647   -2.119889   -1.374018 H        1 UNL1     0.0342
     114 H         -2.069262   -1.234593   -2.180872 H        1 UNL1     0.0342
     115 H         -2.352335   3.476925   2.021126 H        1 UNL1     0.0234
     116 H         -2.395098   3.84213   0.293242 H        1 UNL1     0.0234
     117 H         -3.480298   2.656116   1.0478 H        1 UNL1     0.0234
     118 H         -0.104871   1.371867   -5.71902 H        1 UNL1     0.0309
     119 H         -1.430967   2.541777   -6.003345 H        1 UNL1     0.0309
     120 H         -0.269566   2.147355   -7.251437 H        1 UNL1     0.0309
     121 H         -4.190433   3.189626   -0.673187 H        1 UNL1     0.0524
     122 H         -3.779125   4.797787   -1.282696 H        1 UNL1     0.0524
     123 H         -4.185145   3.497567   -2.430877 H        1 UNL1     0.0524
@<TRIPOS>BOND
     1     1     2    1
     2     1    42    1
     3     2     3    2
     4     3     4    1
     5     4     5    2
     6     5     7    1
     7     6    75    1
     8     6    76    1
     9     6    77    1
    10     7     9   am
    11     9    10    1
    12    10    11    2
    13    10    43    1
    14    11    14    1
    15    11    15    1
    16    12    13   ar
    17    12    27   ar
    18    12    43    1
    19    13    14    1
    20    13    30   ar
    21    14    17    2
    22    15    16    1
    23    16    17    1
    24    16    18    1
    25    16    22    1
    26    18    19    1
    27    19    20    1
    28    20    21    1
    29    21    22    1
    30    23    24    1
    31    23    88    1
    32    23    89    1
    33    24    25    1
    34    24    26    1
    35    24    90    1
    36    25    91    1
    37    25    92    1
    38    25    93    1
    39    26    94    1
    40    26    95    1
    41    26    96    1
    42    27    28   ar
    43    28    29   ar
    44    29    30   ar
    45    29    31    1
    46    30    33    1
    47    31    32    1
    48    32    33    1
    49    32    35    1
    50    34    97    1
    51    34    98    1
    52    34    99    1
    53    35    61    1
    54    36    37    1
    55    36    60    1
    56    37    38    1
    57    38    39    1
    58    39    40    1
    59    40    41    1
    60    41    42    1
    61    45   100    1
    62    47   101    1
    63    47   102    1
    64    47   103    1
    65    48   104    1
    66    49   105    1
    67    49   106    1
    68    49   107    1
    69    50   108    1
    70    51    59    1
    71    52   109    1
    72    52   110    1
    73    52   111    1
    74    53    54    1
    75    54    55    2
    76    54    56    1
    77    56   112    1
    78    56   113    1
    79    56   114    1
    80    57   115    1
    81    57   116    1
    82    57   117    1
    83    58   118    1
    84    58   119    1
    85    58   120    1
    86    59   121    1
    87    59   122    1
    88    59   123    1
    89    60    61    2
    90     1    47    1
    91     1    62    1
    92     2    63    1
    93     3    64    1
    94     4    65    1
    95     5     6    1
    96     7     8    2
    97     9    78    1
    98    15    79    1
    99    18    80    1
   100    18    81    1
   101    19    82    1
   102    19    83    1
   103    20    23    1
   104    21    84    1
   105    21    85    1
   106    22    86    1
   107    22    87    1
   108    27    45    1
   109    28    34    1
   110    32    58    1
   111    33    46    2
   112    36    51    1
   113    36    66    1
   114    37    52    1
   115    37    67    1
   116    38    53    1
   117    38    68    1
   118    42    48    1
   119    42    72    1
   120    43    44    2
   121    60    73    1
   122    61    74    1
   123    39    69    1
   124    39    57    1
   125    40    70    1
   126    40    50    1
   127    41    71    1
   128    41    49    1
