@<TRIPOS>MOLECULE
*****
 123 128 0 0 0
SMALL
GASTEIGER

@<TRIPOS>ATOM
     1 C         5.153438   1.858152   -0.033117 C.3        1 UNL1     0.0009
     2 C         6.712229   2.075484   0.946667 C.2        1 UNL1     -0.0787
     3 C         7.607691   2.917175   1.712009 C.2        1 UNL1     -0.0649
     4 C         8.998311   2.456076   2.560491 C.2        1 UNL1     -0.0542
     5 C         9.90766   2.819442   3.584272 C.2        1 UNL1     0.0115
     6 C         10.343184   3.975689   4.525938 C.3        1 UNL1     -0.0348
     7 C         10.848076   1.687564   4.225724 C.2        1 UNL1     0.2441
     8 O         12.028673   1.558473   3.932378 O.2        1 UNL1     -0.2702
     9 N         10.297248   1.023583   5.33562 N.am        1 UNL1     -0.2772
     10 C         9.551687   -0.058181   4.926661 C.2        1 UNL1     0.1049
     11 C         8.312759   0.198514   4.547995 C.2        1 UNL1     0.0801
     12 C         9.62709   -2.073977   3.447398 C.ar        1 UNL1     0.0753
     13 C         8.371889   -1.635286   2.917652 C.ar        1 UNL1     0.0305
     14 C         7.612069   -0.556   3.544443 C.2        1 UNL1     0.0924
     15 N         7.580078   1.316319   4.690184 N.pl3        1 UNL1     -0.3170
     16 C         6.238689   1.019857   4.26235 C.3        1 UNL1     0.1275
     17 N         6.400686   -0.09056   3.253165 N.2        1 UNL1     -0.2557
     18 C         5.50931   0.406299   5.453675 C.3        1 UNL1     0.0016
     19 C         5.595686   1.370558   6.625995 C.3        1 UNL1     0.0026
     20 N         4.990073   2.636361   6.236116 N.3        1 UNL1     -0.3018
     21 C         5.585061   3.274034   5.059796 C.3        1 UNL1     0.0026
     22 C         5.48332   2.289793   3.893257 C.3        1 UNL1     0.0016
     23 C         4.750954   3.5175   7.361753 C.3        1 UNL1     0.0012
     24 C         3.615763   2.971102   8.241837 C.3        1 UNL1     -0.0339
     25 C         2.787163   4.108564   8.861239 C.3        1 UNL1     -0.0615
     26 C         2.746237   2.019373   7.43877 C.3        1 UNL1     -0.0615
     27 C         10.286628   -3.180785   2.918151 C.ar        1 UNL1     0.1347
     28 C         9.772327   -3.949302   1.88911 C.ar        1 UNL1     0.0342
     29 C         8.559237   -3.469712   1.350992 C.ar        1 UNL1     0.1435
     30 C         7.905093   -2.341353   1.847098 C.ar        1 UNL1     0.0774
     31 O         7.876636   -4.169189   0.418364 O.3        1 UNL1     -0.4436
     32 C         6.541465   -3.645038   0.477161 C.3        1 UNL1     0.3143
     33 C         6.68615   -2.257988   1.069928 C.2        1 UNL1     0.2504
     34 C         10.294691   -5.285804   1.440781 C.3        1 UNL1     -0.0327
     35 O         6.090002   -3.476992   -0.872355 O.2        1 UNL1     -0.4528
     36 C         2.326014   -3.958231   -0.778044 C.3        1 UNL1     0.0854
     37 C         1.243248   -3.182417   0.066499 C.3        1 UNL1     0.0236
     38 C         0.056561   -2.529756   -0.792309 C.3        1 UNL1     0.1131
     39 C         0.39901   -1.620851   -2.040865 C.3        1 UNL1     0.0200
     40 C         1.616926   -0.484678   -1.950143 C.3        1 UNL1     0.0661
     41 C         1.808696   0.670582   -0.722866 C.3        1 UNL1     0.0091
     42 C         3.329316   1.413833   -0.015267 C.3        1 UNL1     0.0661
     43 C         10.160073   -1.36528   4.63733 C.2        1 UNL1     0.2131
     44 O         10.971387   -1.852558   5.403534 O.2        1 UNL1     -0.2851
     45 O         11.525717   -3.513995   3.461353 O.3        1 UNL1     -0.5056
     46 O         5.968898   -1.294639   0.917087 O.2        1 UNL1     -0.2836
     47 C         5.310041   2.489486   -1.442682 C.3        1 UNL1     -0.0566
     48 O         2.820379   2.804789   -0.088339 O.3        1 UNL1     -0.3909
     49 C         0.916483   0.299288   0.440573 C.3        1 UNL1     -0.0577
     50 O         2.866592   -1.063032   -2.268835 O.3        1 UNL1     -0.3910
     51 O         2.217837   -3.837161   -2.178426 O.3        1 UNL1     -0.3753
     52 C         1.876981   -2.454073   1.296478 C.3        1 UNL1     -0.0564
     53 O         -1.12361   -2.111313   0.034991 O.3        1 UNL1     -0.4608
     54 C         -1.885641   -0.992025   -0.175804 C.2        1 UNL1     0.3042
     55 O         -1.622534   0.163679   0.154288 O.2        1 UNL1     -0.2512
     56 C         -3.145336   -1.259051   -0.949483 C.3        1 UNL1     0.0332
     57 C         0.340043   -2.547877   -3.34291 C.3        1 UNL1     -0.0567
     58 C         5.765485   -4.535649   1.475257 C.3        1 UNL1     0.0210
     59 C         1.75712   -5.010085   -2.847646 C.3        1 UNL1     0.0372
     60 C         3.738566   -3.646179   -0.428069 C.2        1 UNL1     -0.0208
     61 C         4.788979   -3.399028   -1.211837 C.2        1 UNL1     0.0882
     62 H         5.391343   0.792852   -0.139172 H        1 UNL1     0.0365
     63 H         7.158921   1.084639   0.84101 H        1 UNL1     0.0576
     64 H         7.355917   3.953015   1.950239 H        1 UNL1     0.0615
     65 H         9.204922   1.447052   2.193525 H        1 UNL1     0.0622
     66 H         2.176629   -5.014765   -0.514478 H        1 UNL1     0.0645
     67 H         0.70734   -3.978778   0.611633 H        1 UNL1     0.0362
     68 H         -0.391723   -3.443714   -1.210932 H        1 UNL1     0.0741
     69 H         -0.467885   -1.020412   -2.282472 H        1 UNL1     0.0359
     70 H         1.365842   0.13486   -2.832293 H        1 UNL1     0.0600
     71 H         1.24773   1.517216   -1.165003 H        1 UNL1     0.0348
     72 H         3.620785   0.997424   -0.990442 H        1 UNL1     0.0602
     73 H         3.873518   -3.764857   0.618331 H        1 UNL1     0.0628
     74 H         4.727101   -3.207014   -2.283537 H        1 UNL1     0.1022
     75 H         10.451352   4.928161   3.953111 H        1 UNL1     0.0279
     76 H         9.642521   4.252454   5.310502 H        1 UNL1     0.0279
     77 H         11.361468   3.842738   4.919794 H        1 UNL1     0.0279
     78 H         9.673932   1.653524   5.836347 H        1 UNL1     0.1553
     79 H         7.792365   2.041137   5.35087 H        1 UNL1     0.1484
     80 H         4.467601   0.209838   5.172582 H        1 UNL1     0.0317
     81 H         5.948021   -0.559662   5.725893 H        1 UNL1     0.0317
     82 H         6.634071   1.514541   6.959069 H        1 UNL1     0.0428
     83 H         5.070923   0.912659   7.465043 H        1 UNL1     0.0428
     84 H         5.061994   4.180929   4.740806 H        1 UNL1     0.0428
     85 H         6.612124   3.612756   5.254032 H        1 UNL1     0.0428
     86 H         5.80397   2.835431   3.025242 H        1 UNL1     0.0317
     87 H         4.430273   2.069327   3.679759 H        1 UNL1     0.0317
     88 H         5.668864   3.56099   7.962456 H        1 UNL1     0.0429
     89 H         4.535969   4.540936   7.028385 H        1 UNL1     0.0429
     90 H         4.046561   2.371501   9.052456 H        1 UNL1     0.0308
     91 H         2.536724   4.86954   8.116056 H        1 UNL1     0.0233
     92 H         1.865506   3.719998   9.300757 H        1 UNL1     0.0233
     93 H         3.320381   4.620221   9.671622 H        1 UNL1     0.0233
     94 H         1.756071   1.932829   7.899114 H        1 UNL1     0.0233
     95 H         2.613423   2.401706   6.422825 H        1 UNL1     0.0233
     96 H         3.190796   1.021646   7.385147 H        1 UNL1     0.0233
     97 H         9.53942   -6.062888   1.511038 H        1 UNL1     0.0280
     98 H         10.616462   -5.273467   0.391225 H        1 UNL1     0.0280
     99 H         11.150608   -5.577815   2.071044 H        1 UNL1     0.0280
     100 H         12.12685   -2.793813   3.536178 H        1 UNL1     0.2922
     101 H         5.448065   1.703133   -2.184473 H        1 UNL1     0.0236
     102 H         6.098142   3.240184   -1.490979 H        1 UNL1     0.0236
     103 H         4.397342   3.019225   -1.762918 H        1 UNL1     0.0236
     104 H         2.313401   2.890092   -0.919402 H        1 UNL1     0.2098
     105 H         1.283181   -0.529343   1.041168 H        1 UNL1     0.0234
     106 H         0.632982   1.134   1.081518 H        1 UNL1     0.0234
     107 H         -0.0   0.0   0.0 H        1 UNL1     0.0234
     108 H         3.558044   -0.43498   -1.983857 H        1 UNL1     0.2098
     109 H         2.362046   -3.154799   1.990312 H        1 UNL1     0.0234
     110 H         2.586228   -1.668902   1.013248 H        1 UNL1     0.0234
     111 H         1.118189   -1.926151   1.889335 H        1 UNL1     0.0234
     112 H         -3.694424   -0.324693   -1.100556 H        1 UNL1     0.0342
     113 H         -2.9457   -1.752863   -1.899292 H        1 UNL1     0.0342
     114 H         -3.779028   -1.929334   -0.352556 H        1 UNL1     0.0342
     115 H         -0.01003   -1.992667   -4.224033 H        1 UNL1     0.0234
     116 H         1.294905   -3.008843   -3.603293 H        1 UNL1     0.0234
     117 H         -0.418095   -3.347364   -3.279749 H        1 UNL1     0.0234
     118 H         5.005566   -5.158204   0.971319 H        1 UNL1     0.0309
     119 H         6.417793   -5.180383   2.072765 H        1 UNL1     0.0309
     120 H         5.178259   -3.95093   2.19176 H        1 UNL1     0.0309
     121 H         2.137757   -4.978393   -3.868169 H        1 UNL1     0.0524
     122 H         2.136045   -5.934359   -2.38056 H        1 UNL1     0.0524
     123 H         0.671159   -5.037502   -2.853317 H        1 UNL1     0.0524
@<TRIPOS>BOND
     1     1     2    1
     2     1    42    1
     3     2     3    2
     4     3     4    1
     5     4     5    2
     6     5     7    1
     7     6    75    1
     8     6    76    1
     9     6    77    1
    10     7     9   am
    11     9    10    1
    12    10    11    2
    13    10    43    1
    14    11    14    1
    15    11    15    1
    16    12    13   ar
    17    12    27   ar
    18    12    43    1
    19    13    14    1
    20    13    30   ar
    21    14    17    2
    22    15    16    1
    23    16    17    1
    24    16    18    1
    25    16    22    1
    26    18    19    1
    27    19    20    1
    28    20    21    1
    29    21    22    1
    30    23    24    1
    31    23    88    1
    32    23    89    1
    33    24    25    1
    34    24    26    1
    35    24    90    1
    36    25    91    1
    37    25    92    1
    38    25    93    1
    39    26    94    1
    40    26    95    1
    41    26    96    1
    42    27    28   ar
    43    28    29   ar
    44    29    30   ar
    45    29    31    1
    46    30    33    1
    47    31    32    1
    48    32    33    1
    49    32    35    1
    50    34    97    1
    51    34    98    1
    52    34    99    1
    53    35    61    1
    54    36    37    1
    55    36    60    1
    56    37    38    1
    57    38    39    1
    58    39    40    1
    59    40    41    1
    60    41    42    1
    61    45   100    1
    62    47   101    1
    63    47   102    1
    64    47   103    1
    65    48   104    1
    66    49   105    1
    67    49   106    1
    68    49   107    1
    69    50   108    1
    70    51    59    1
    71    52   109    1
    72    52   110    1
    73    52   111    1
    74    53    54    1
    75    54    55    2
    76    54    56    1
    77    56   112    1
    78    56   113    1
    79    56   114    1
    80    57   115    1
    81    57   116    1
    82    57   117    1
    83    58   118    1
    84    58   119    1
    85    58   120    1
    86    59   121    1
    87    59   122    1
    88    59   123    1
    89    60    61    2
    90     1    47    1
    91     1    62    1
    92     2    63    1
    93     3    64    1
    94     4    65    1
    95     5     6    1
    96     7     8    2
    97     9    78    1
    98    15    79    1
    99    18    80    1
   100    18    81    1
   101    19    82    1
   102    19    83    1
   103    20    23    1
   104    21    84    1
   105    21    85    1
   106    22    86    1
   107    22    87    1
   108    27    45    1
   109    28    34    1
   110    32    58    1
   111    33    46    2
   112    36    51    1
   113    36    66    1
   114    37    52    1
   115    37    67    1
   116    38    53    1
   117    38    68    1
   118    42    48    1
   119    42    72    1
   120    43    44    2
   121    60    73    1
   122    61    74    1
   123    39    69    1
   124    39    57    1
   125    40    70    1
   126    40    50    1
   127    41    71    1
   128    41    49    1
