@<TRIPOS>MOLECULE
*****
 123 128 0 0 0
SMALL
GASTEIGER

@<TRIPOS>ATOM
     1 C         4.293299   3.282441   0.588991 C.3        1 UNL1     0.0009
     2 C         5.21356   4.700901   -0.171355 C.2        1 UNL1     -0.0787
     3 C         6.372593   5.216661   -0.868981 C.2        1 UNL1     -0.0649
     4 C         6.616402   6.782006   -1.466148 C.2        1 UNL1     -0.0542
     5 C         7.358428   7.575173   -2.375742 C.2        1 UNL1     0.0115
     6 C         8.576264   7.574293   -3.340209 C.3        1 UNL1     -0.0348
     7 C         6.799932   9.02591   -2.776282 C.2        1 UNL1     0.2441
     8 O         7.245744   10.063624   -2.306252 O.2        1 UNL1     -0.2702
     9 N         5.946302   9.040668   -3.893086 N.am        1 UNL1     -0.2772
     10 C         4.643771   8.826321   -3.504771 C.2        1 UNL1     0.1049
     11 C         4.287905   7.566332   -3.331537 C.2        1 UNL1     0.0801
     12 C         2.913492   9.580932   -1.86342 C.ar        1 UNL1     0.0753
     13 C         2.711494   8.197024   -1.559111 C.ar        1 UNL1     0.0305
     14 C         3.299454   7.139678   -2.378486 C.2        1 UNL1     0.0924
     15 N         4.926241   6.433731   -3.672521 N.pl3        1 UNL1     -0.3170
     16 C         4.034764   5.333318   -3.418328 C.3        1 UNL1     0.1275
     17 N         3.139948   5.821299   -2.305268 N.2        1 UNL1     -0.2557
     18 C         3.140671   5.182976   -4.645397 C.3        1 UNL1     0.0016
     19 C         4.022704   5.006143   -5.871096 C.3        1 UNL1     0.0026
     20 N         4.855457   3.826422   -5.681866 N.3        1 UNL1     -0.3018
     21 C         5.707242   3.851189   -4.490977 C.3        1 UNL1     0.0026
     22 C         4.800297   4.024905   -3.271482 C.3        1 UNL1     0.0016
     23 C         5.510886   3.397306   -6.901257 C.3        1 UNL1     0.0012
     24 C         6.218883   4.581747   -7.577716 C.3        1 UNL1     -0.0339
     25 C         6.182657   4.458026   -9.109851 C.3        1 UNL1     -0.0615
     26 C         5.608298   5.890691   -7.108004 C.3        1 UNL1     -0.0615
     27 C         2.253198   10.580142   -1.152288 C.ar        1 UNL1     0.1347
     28 C         1.340597   10.317836   -0.146104 C.ar        1 UNL1     0.0342
     29 C         1.194596   8.950159   0.169024 C.ar        1 UNL1     0.1435
     30 C         1.876681   7.940094   -0.510498 C.ar        1 UNL1     0.0774
     31 O         0.262673   8.525527   1.050053 O.3        1 UNL1     -0.4436
     32 C         0.093866   7.130713   0.755312 C.3        1 UNL1     0.3143
     33 C         1.38043   6.711402   0.073298 C.2        1 UNL1     0.2504
     34 C         0.412461   11.317941   0.485129 C.3        1 UNL1     -0.0327
     35 O         0.038889   6.434546   2.006544 O.2        1 UNL1     -0.4528
     36 C         -2.163186   3.40024   1.413296 C.3        1 UNL1     0.0854
     37 C         -1.996833   2.23935   0.358694 C.3        1 UNL1     0.0236
     38 C         -1.975419   0.760674   0.979019 C.3        1 UNL1     0.1131
     39 C         -1.003246   0.42777   2.181651 C.3        1 UNL1     0.0200
     40 C         0.572638   0.974486   2.170381 C.3        1 UNL1     0.0661
     41 C         1.67239   0.809792   0.889353 C.3        1 UNL1     0.0091
     42 C         3.040246   1.905326   0.346972 C.3        1 UNL1     0.0661
     43 C         3.780985   9.91415   -3.020434 C.2        1 UNL1     0.2131
     44 O         3.728811   10.97408   -3.617564 O.2        1 UNL1     -0.2851
     45 O         2.540467   11.903297   -1.481184 O.3        1 UNL1     -0.5056
     46 O         1.892098   5.614659   0.038592 O.2        1 UNL1     -0.2836
     47 C         4.93425   2.889915   1.947331 C.3        1 UNL1     -0.0566
     48 O         4.026605   0.804492   0.227078 O.3        1 UNL1     -0.3909
     49 C         0.915176   0.400659   -0.354324 C.3        1 UNL1     -0.0577
     50 O         0.65523   2.276685   2.713686 O.3        1 UNL1     -0.3910
     51 O         -2.097111   3.015949   2.76806 O.3        1 UNL1     -0.3753
     52 C         -1.064751   2.657756   -0.82499 C.3        1 UNL1     -0.0564
     53 O         -2.169946   -0.321838   -0.042085 O.3        1 UNL1     -0.4608
     54 C         -1.826489   -1.638566   0.119767 C.2        1 UNL1     0.3042
     55 O         -0.846149   -2.217491   -0.346728 O.2        1 UNL1     -0.2512
     56 C         -2.757934   -2.396474   1.022375 C.3        1 UNL1     0.0332
     57 C         -1.838551   0.589474   3.536012 C.3        1 UNL1     -0.0567
     58 C         -1.065008   7.036228   -0.264302 C.3        1 UNL1     0.0210
     59 C         -2.805445   3.867189   3.667792 C.3        1 UNL1     0.0372
     60 C         -1.223786   4.542294   1.244769 C.2        1 UNL1     -0.0208
     61 C         -0.504137   5.210107   2.147473 C.2        1 UNL1     0.0882
     62 H         3.467368   3.966384   0.818708 H        1 UNL1     0.0365
     63 H         4.551836   5.531915   0.081641 H        1 UNL1     0.0576
     64 H         7.165022   4.556422   -1.228491 H        1 UNL1     0.0615
     65 H         5.827244   7.369003   -0.9885 H        1 UNL1     0.0622
     66 H         -3.167001   3.80504   1.222148 H        1 UNL1     0.0645
     67 H         -2.955904   2.234202   -0.187855 H        1 UNL1     0.0362
     68 H         -2.989601   0.725321   1.405292 H        1 UNL1     0.0741
     69 H         -0.881472   -0.645404   2.243919 H        1 UNL1     0.0359
     70 H         1.006774   0.320993   2.951107 H        1 UNL1     0.0600
     71 H         2.157119   -0.145159   1.172309 H        1 UNL1     0.0348
     72 H         2.818066   2.189275   1.385878 H        1 UNL1     0.0602
     73 H         -1.272475   4.889616   0.242648 H        1 UNL1     0.0628
     74 H         -0.356113   4.888052   3.178786 H        1 UNL1     0.1022
     75 H         9.523511   7.398987   -2.775386 H        1 UNL1     0.0279
     76 H         8.601088   6.786306   -4.089562 H        1 UNL1     0.0279
     77 H         8.76808   8.562249   -3.783888 H        1 UNL1     0.0279
     78 H         6.20356   8.289666   -4.530182 H        1 UNL1     0.1553
     79 H         5.660469   6.392122   -4.355244 H        1 UNL1     0.1484
     80 H         2.477744   4.321272   -4.501314 H        1 UNL1     0.0317
     81 H         2.4943   6.058629   -4.768225 H        1 UNL1     0.0317
     82 H         4.637416   5.898014   -6.062427 H        1 UNL1     0.0428
     83 H         3.365057   4.902606   -6.73471 H        1 UNL1     0.0428
     84 H         6.262067   2.921789   -4.329126 H        1 UNL1     0.0428
     85 H         6.489302   4.619574   -4.563677 H        1 UNL1     0.0428
     86 H         5.439129   3.905336   -2.416155 H        1 UNL1     0.0317
     87 H         4.110353   3.175782   -3.193622 H        1 UNL1     0.0317
     88 H         6.264713   2.644181   -6.636982 H        1 UNL1     0.0429
     89 H         4.801802   2.915788   -7.586906 H        1 UNL1     0.0429
     90 H         7.266189   4.606602   -7.25407 H        1 UNL1     0.0308
     91 H         5.189085   4.164693   -9.461806 H        1 UNL1     0.0233
     92 H         6.465436   5.402571   -9.580468 H        1 UNL1     0.0233
     93 H         6.88775   3.706362   -9.484925 H        1 UNL1     0.0233
     94 H         5.812461   6.684817   -7.834308 H        1 UNL1     0.0233
     95 H         4.523361   5.786152   -7.018863 H        1 UNL1     0.0233
     96 H         6.014317   6.195531   -6.139402 H        1 UNL1     0.0233
     97 H         -0.072497   10.920706   1.371837 H        1 UNL1     0.0280
     98 H         0.940068   12.223713   0.811415 H        1 UNL1     0.0280
     99 H         -0.369264   11.603448   -0.237704 H        1 UNL1     0.0280
     100 H         2.244283   12.16782   -2.33437 H        1 UNL1     0.2922
     101 H         4.216116   2.327781   2.543943 H        1 UNL1     0.0236
     102 H         5.340385   3.741767   2.491744 H        1 UNL1     0.0236
     103 H         5.788915   2.204812   1.81937 H        1 UNL1     0.0236
     104 H         4.463071   0.703645   1.095581 H        1 UNL1     0.2098
     105 H         0.680593   1.221297   -1.027626 H        1 UNL1     0.0234
     106 H         1.360669   -0.426163   -0.907341 H        1 UNL1     0.0234
     107 H         0.0   -0.0   0.0 H        1 UNL1     0.0234
     108 H         1.533129   2.634043   2.478403 H        1 UNL1     0.2098
     109 H         -1.458576   3.520986   -1.37947 H        1 UNL1     0.0234
     110 H         -0.035653   2.862614   -0.51077 H        1 UNL1     0.0234
     111 H         -0.962074   1.851704   -1.563694 H        1 UNL1     0.0234
     112 H         -2.986967   -3.373139   0.585323 H        1 UNL1     0.0342
     113 H         -2.356161   -2.503347   2.028854 H        1 UNL1     0.0342
     114 H         -3.697748   -1.832293   1.097296 H        1 UNL1     0.0342
     115 H         -2.771662   0.00989   3.512015 H        1 UNL1     0.0234
     116 H         -1.291208   0.293595   4.433185 H        1 UNL1     0.0234
     117 H         -2.225965   1.610591   3.694672 H        1 UNL1     0.0234
     118 H         -1.994185   6.659368   0.197882 H        1 UNL1     0.0309
     119 H         -1.274347   7.986305   -0.766032 H        1 UNL1     0.0309
     120 H         -0.866405   6.310256   -1.060308 H        1 UNL1     0.0309
     121 H         -2.335056   3.77675   4.646521 H        1 UNL1     0.0524
     122 H         -2.751598   4.927682   3.370314 H        1 UNL1     0.0524
     123 H         -3.848619   3.569386   3.72432 H        1 UNL1     0.0524
@<TRIPOS>BOND
     1     1     2    1
     2     1    42    1
     3     2     3    2
     4     3     4    1
     5     4     5    2
     6     5     7    1
     7     6    75    1
     8     6    76    1
     9     6    77    1
    10     7     9   am
    11     9    10    1
    12    10    11    2
    13    10    43    1
    14    11    14    1
    15    11    15    1
    16    12    13   ar
    17    12    27   ar
    18    12    43    1
    19    13    14    1
    20    13    30   ar
    21    14    17    2
    22    15    16    1
    23    16    17    1
    24    16    18    1
    25    16    22    1
    26    18    19    1
    27    19    20    1
    28    20    21    1
    29    21    22    1
    30    23    24    1
    31    23    88    1
    32    23    89    1
    33    24    25    1
    34    24    26    1
    35    24    90    1
    36    25    91    1
    37    25    92    1
    38    25    93    1
    39    26    94    1
    40    26    95    1
    41    26    96    1
    42    27    28   ar
    43    28    29   ar
    44    29    30   ar
    45    29    31    1
    46    30    33    1
    47    31    32    1
    48    32    33    1
    49    32    35    1
    50    34    97    1
    51    34    98    1
    52    34    99    1
    53    35    61    1
    54    36    37    1
    55    36    60    1
    56    37    38    1
    57    38    39    1
    58    39    40    1
    59    40    41    1
    60    41    42    1
    61    45   100    1
    62    47   101    1
    63    47   102    1
    64    47   103    1
    65    48   104    1
    66    49   105    1
    67    49   106    1
    68    49   107    1
    69    50   108    1
    70    51    59    1
    71    52   109    1
    72    52   110    1
    73    52   111    1
    74    53    54    1
    75    54    55    2
    76    54    56    1
    77    56   112    1
    78    56   113    1
    79    56   114    1
    80    57   115    1
    81    57   116    1
    82    57   117    1
    83    58   118    1
    84    58   119    1
    85    58   120    1
    86    59   121    1
    87    59   122    1
    88    59   123    1
    89    60    61    2
    90     1    47    1
    91     1    62    1
    92     2    63    1
    93     3    64    1
    94     4    65    1
    95     5     6    1
    96     7     8    2
    97     9    78    1
    98    15    79    1
    99    18    80    1
   100    18    81    1
   101    19    82    1
   102    19    83    1
   103    20    23    1
   104    21    84    1
   105    21    85    1
   106    22    86    1
   107    22    87    1
   108    27    45    1
   109    28    34    1
   110    32    58    1
   111    33    46    2
   112    36    51    1
   113    36    66    1
   114    37    52    1
   115    37    67    1
   116    38    53    1
   117    38    68    1
   118    42    48    1
   119    42    72    1
   120    43    44    2
   121    60    73    1
   122    61    74    1
   123    39    69    1
   124    39    57    1
   125    40    70    1
   126    40    50    1
   127    41    71    1
   128    41    49    1
