@<TRIPOS>MOLECULE
*****
 123 128 0 0 0
SMALL
GASTEIGER

@<TRIPOS>ATOM
     1 C         5.164819   1.763833   0.461316 C.3        1 UNL1     0.0009
     2 C         6.594306   2.573814   -0.397482 C.2        1 UNL1     -0.0787
     3 C         7.872647   2.479115   -1.070476 C.2        1 UNL1     -0.0649
     4 C         8.742209   3.716527   -1.831417 C.2        1 UNL1     -0.0542
     5 C         9.756021   4.011818   -2.77591 C.2        1 UNL1     0.0115
     6 C         10.881066   3.389358   -3.647769 C.3        1 UNL1     -0.0348
     7 C         9.843623   5.495154   -3.383389 C.2        1 UNL1     0.2441
     8 O         10.667272   6.319291   -3.010661 O.2        1 UNL1     -0.2702
     9 N         9.086147   5.699591   -4.549831 N.am        1 UNL1     -0.2772
     10 C         7.804131   6.082671   -4.228885 C.2        1 UNL1     0.1049
     11 C         6.962829   5.108915   -3.931847 C.2        1 UNL1     0.0801
     12 C         6.509172   7.686015   -2.811245 C.ar        1 UNL1     0.0753
     13 C         5.755933   6.556056   -2.359102 C.ar        1 UNL1     0.0305
     14 C         5.87295   5.250496   -3.004757 C.2        1 UNL1     0.0924
     15 N         7.088373   3.780247   -4.091238 N.pl3        1 UNL1     -0.3170
     16 C         5.822058   3.177517   -3.769651 C.3        1 UNL1     0.1275
     17 N         5.1885   4.13122   -2.786401 N.2        1 UNL1     -0.2557
     18 C         4.961855   3.233733   -5.028456 C.3        1 UNL1     0.0016
     19 C         5.712261   2.551466   -6.161149 C.3        1 UNL1     0.0026
     20 N         5.988571   1.17427   -5.776426 N.3        1 UNL1     -0.3018
     21 C         6.759439   1.016465   -4.541424 C.3        1 UNL1     0.0026
     22 C         5.985106   1.705089   -3.416213 C.3        1 UNL1     0.0016
     23 C         6.429108   0.355669   -6.88839 C.3        1 UNL1     0.0012
     24 C         5.268809   0.102556   -7.863785 C.3        1 UNL1     -0.0339
     25 C         5.354282   1.025041   -9.090884 C.3        1 UNL1     -0.0615
     26 C         5.236801   -1.361599   -8.266287 C.3        1 UNL1     -0.0615
     27 C         6.303935   8.953283   -2.270849 C.ar        1 UNL1     0.1347
     28 C         5.349591   9.220368   -1.305477 C.ar        1 UNL1     0.0342
     29 C         4.65394   8.084045   -0.840714 C.ar        1 UNL1     0.1435
     30 C         4.874195   6.802497   -1.347015 C.ar        1 UNL1     0.0774
     31 O         3.617508   8.19488   0.018665 O.3        1 UNL1     -0.4436
     32 C         2.89859   6.959941   -0.119008 C.3        1 UNL1     0.3143
     33 C         3.911696   5.969591   -0.65663 C.2        1 UNL1     0.2504
     34 C         4.901335   10.585318   -0.862671 C.3        1 UNL1     -0.0327
     35 O         2.546728   6.522621   1.199399 O.2        1 UNL1     -0.4528
     36 C         -0.692943   4.58097   0.821759 C.3        1 UNL1     0.0854
     37 C         -0.999727   3.319224   -0.073453 C.3        1 UNL1     0.0236
     38 C         -1.592138   2.056707   0.718281 C.3        1 UNL1     0.1131
     39 C         -0.857437   1.528284   2.015684 C.3        1 UNL1     0.0200
     40 C         0.804376   1.38754   2.047414 C.3        1 UNL1     0.0661
     41 C         1.759272   0.621102   0.87338 C.3        1 UNL1     0.0091
     42 C         3.46256   0.988397   0.299527 C.3        1 UNL1     0.0661
     43 C         7.453396   7.48069   -3.937541 C.2        1 UNL1     0.2131
     44 O         7.84658   8.379685   -4.658618 O.2        1 UNL1     -0.2851
     45 O         7.110584   9.990578   -2.734286 O.3        1 UNL1     -0.5056
     46 O         3.931902   4.76615   -0.525576 O.2        1 UNL1     -0.2836
     47 C         5.570621   1.335967   1.897365 C.3        1 UNL1     -0.0566
     48 O         3.91565   -0.421383   0.379186 O.3        1 UNL1     -0.3909
     49 C         0.918694   0.385706   -0.361736 C.3        1 UNL1     -0.0577
     50 O         1.403294   2.607255   2.436409 O.3        1 UNL1     -0.3910
     51 O         -0.808538   4.391393   2.213926 O.3        1 UNL1     -0.3753
     52 C         0.038589   3.161386   -1.231873 C.3        1 UNL1     -0.0564
     53 O         -2.196871   1.015697   -0.177778 O.3        1 UNL1     -0.4608
     54 C         -2.394408   -0.299665   0.151964 C.2        1 UNL1     0.3042
     55 O         -1.719319   -1.266905   -0.198095 O.2        1 UNL1     -0.2512
     56 C         -3.545269   -0.517583   1.092572 C.3        1 UNL1     0.0332
     57 C         -1.573176   2.195612   3.280819 C.3        1 UNL1     -0.0567
     58 C         1.816519   7.201577   -1.197091 C.3        1 UNL1     0.0210
     59 C         -1.120899   5.569735   2.955415 C.3        1 UNL1     0.0372
     60 C         0.632896   5.213802   0.583358 C.2        1 UNL1     -0.0208
     61 C         1.549525   5.651949   1.447397 C.2        1 UNL1     0.0882
     62 H         4.686571   2.74666   0.550992 H        1 UNL1     0.0365
     63 H         6.325629   3.626877   -0.290989 H        1 UNL1     0.0576
     64 H         8.331815   1.513514   -1.293831 H        1 UNL1     0.0615
     65 H         8.254481   4.630633   -1.48211 H        1 UNL1     0.0622
     66 H         -1.441501   5.325248   0.515561 H        1 UNL1     0.0645
     67 H         -1.869641   3.625894   -0.679887 H        1 UNL1     0.0362
     68 H         -2.538437   2.490972   1.075288 H        1 UNL1     0.0741
     69 H         -1.184924   0.516301   2.213297 H        1 UNL1     0.0359
     70 H         0.923087   0.727828   2.928179 H        1 UNL1     0.0600
     71 H         1.808235   -0.399791   1.300389 H        1 UNL1     0.0348
     72 H         3.360874   1.476623   1.279635 H        1 UNL1     0.0602
     73 H         0.744296   5.411044   -0.453915 H        1 UNL1     0.0628
     74 H         1.538701   5.441593   2.517383 H        1 UNL1     0.1022
     75 H         10.878075   2.276467   -3.555584 H        1 UNL1     0.0279
     76 H         10.799041   3.535621   -4.722454 H        1 UNL1     0.0279
     77 H         11.888442   3.634597   -3.280682 H        1 UNL1     0.0279
     78 H         9.023653   4.829291   -5.073998 H        1 UNL1     0.1553
     79 H         7.751332   3.353965   -4.712286 H        1 UNL1     0.1484
     80 H         4.003117   2.740101   -4.828671 H        1 UNL1     0.0317
     81 H         4.730716   4.269739   -5.298491 H        1 UNL1     0.0317
     82 H         6.639957   3.08536   -6.414623 H        1 UNL1     0.0428
     83 H         5.081864   2.60451   -7.049313 H        1 UNL1     0.0428
     84 H         6.884527   -0.026032   -4.232614 H        1 UNL1     0.0428
     85 H         7.787857   1.387425   -4.65125 H        1 UNL1     0.0428
     86 H         6.507432   1.456519   -2.511018 H        1 UNL1     0.0317
     87 H         5.007772   1.224678   -3.28537 H        1 UNL1     0.0317
     88 H         7.22058   0.899576   -7.420398 H        1 UNL1     0.0429
     89 H         6.866424   -0.588736   -6.539639 H        1 UNL1     0.0429
     90 H         4.319283   0.292637   -7.349506 H        1 UNL1     0.0308
     91 H         6.369471   1.052334   -9.498006 H        1 UNL1     0.0233
     92 H         4.663853   0.695417   -9.870798 H        1 UNL1     0.0233
     93 H         5.078044   2.059966   -8.85539 H        1 UNL1     0.0233
     94 H         4.701059   -1.481101   -9.214198 H        1 UNL1     0.0233
     95 H         6.255858   -1.733093   -8.405849 H        1 UNL1     0.0233
     96 H         4.738896   -1.972979   -7.508479 H        1 UNL1     0.0233
     97 H         4.057495   10.535816   -0.180971 H        1 UNL1     0.0280
     98 H         5.690998   11.125907   -0.324664 H        1 UNL1     0.0280
     99 H         4.600913   11.178373   -1.741947 H        1 UNL1     0.0280
     100 H         6.643164   10.76785   -2.985264 H        1 UNL1     0.2922
     101 H         4.688832   1.004301   2.44518 H        1 UNL1     0.0236
     102 H         6.120076   2.107707   2.435416 H        1 UNL1     0.0236
     103 H         6.243428   0.462173   1.894586 H        1 UNL1     0.0236
     104 H         4.252692   -0.572197   1.283966 H        1 UNL1     0.2098
     105 H         0.700182   1.283725   -0.934123 H        1 UNL1     0.0234
     106 H         1.286593   -0.401474   -1.019706 H        1 UNL1     0.0234
     107 H         0.0   -0.0   0.0 H        1 UNL1     0.0234
     108 H         1.252756   3.247564   1.714529 H        1 UNL1     0.2098
     109 H         1.067315   3.063388   -0.857935 H        1 UNL1     0.0234
     110 H         -0.188624   2.325795   -1.902624 H        1 UNL1     0.0234
     111 H         0.044688   4.038776   -1.892249 H        1 UNL1     0.0234
     112 H         -3.634758   -1.581792   1.330895 H        1 UNL1     0.0342
     113 H         -3.452305   0.079243   1.998662 H        1 UNL1     0.0342
     114 H         -4.468134   -0.207785   0.583149 H        1 UNL1     0.0342
     115 H         -2.661105   2.043146   3.262071 H        1 UNL1     0.0234
     116 H         -1.206883   1.829965   4.242162 H        1 UNL1     0.0234
     117 H         -1.51255   3.297511   3.290046 H        1 UNL1     0.0234
     118 H         0.80803   7.297585   -0.758072 H        1 UNL1     0.0309
     119 H         2.020165   8.077277   -1.821495 H        1 UNL1     0.0309
     120 H         1.712802   6.355772   -1.88554 H        1 UNL1     0.0309
     121 H         -0.742207   5.432243   3.96786 H        1 UNL1     0.0524
     122 H         -0.635093   6.467557   2.538347 H        1 UNL1     0.0524
     123 H         -2.19553   5.727423   2.975363 H        1 UNL1     0.0524
@<TRIPOS>BOND
     1     1     2    1
     2     1    42    1
     3     2     3    2
     4     3     4    1
     5     4     5    2
     6     5     7    1
     7     6    75    1
     8     6    76    1
     9     6    77    1
    10     7     9   am
    11     9    10    1
    12    10    11    2
    13    10    43    1
    14    11    14    1
    15    11    15    1
    16    12    13   ar
    17    12    27   ar
    18    12    43    1
    19    13    14    1
    20    13    30   ar
    21    14    17    2
    22    15    16    1
    23    16    17    1
    24    16    18    1
    25    16    22    1
    26    18    19    1
    27    19    20    1
    28    20    21    1
    29    21    22    1
    30    23    24    1
    31    23    88    1
    32    23    89    1
    33    24    25    1
    34    24    26    1
    35    24    90    1
    36    25    91    1
    37    25    92    1
    38    25    93    1
    39    26    94    1
    40    26    95    1
    41    26    96    1
    42    27    28   ar
    43    28    29   ar
    44    29    30   ar
    45    29    31    1
    46    30    33    1
    47    31    32    1
    48    32    33    1
    49    32    35    1
    50    34    97    1
    51    34    98    1
    52    34    99    1
    53    35    61    1
    54    36    37    1
    55    36    60    1
    56    37    38    1
    57    38    39    1
    58    39    40    1
    59    40    41    1
    60    41    42    1
    61    45   100    1
    62    47   101    1
    63    47   102    1
    64    47   103    1
    65    48   104    1
    66    49   105    1
    67    49   106    1
    68    49   107    1
    69    50   108    1
    70    51    59    1
    71    52   109    1
    72    52   110    1
    73    52   111    1
    74    53    54    1
    75    54    55    2
    76    54    56    1
    77    56   112    1
    78    56   113    1
    79    56   114    1
    80    57   115    1
    81    57   116    1
    82    57   117    1
    83    58   118    1
    84    58   119    1
    85    58   120    1
    86    59   121    1
    87    59   122    1
    88    59   123    1
    89    60    61    2
    90     1    47    1
    91     1    62    1
    92     2    63    1
    93     3    64    1
    94     4    65    1
    95     5     6    1
    96     7     8    2
    97     9    78    1
    98    15    79    1
    99    18    80    1
   100    18    81    1
   101    19    82    1
   102    19    83    1
   103    20    23    1
   104    21    84    1
   105    21    85    1
   106    22    86    1
   107    22    87    1
   108    27    45    1
   109    28    34    1
   110    32    58    1
   111    33    46    2
   112    36    51    1
   113    36    66    1
   114    37    52    1
   115    37    67    1
   116    38    53    1
   117    38    68    1
   118    42    48    1
   119    42    72    1
   120    43    44    2
   121    60    73    1
   122    61    74    1
   123    39    69    1
   124    39    57    1
   125    40    70    1
   126    40    50    1
   127    41    71    1
   128    41    49    1
