@<TRIPOS>MOLECULE
*****
 123 128 0 0 0
SMALL
GASTEIGER

@<TRIPOS>ATOM
     1 C         3.409278   2.273065   0.635872 C.3        1 UNL1     0.0009
     2 C         3.652127   4.068674   0.243632 C.2        1 UNL1     -0.0787
     3 C         4.167704   5.106121   -0.624659 C.2        1 UNL1     -0.0649
     4 C         3.947529   6.779455   -0.491116 C.2        1 UNL1     -0.0542
     5 C         3.988009   8.014747   -1.18357 C.2        1 UNL1     0.0115
     6 C         4.421033   8.698364   -2.509647 C.3        1 UNL1     -0.0348
     7 C         3.233908   9.283882   -0.553001 C.2        1 UNL1     0.2441
     8 O         3.820598   10.18213   0.034766 O.2        1 UNL1     -0.2702
     9 N         1.891766   9.426633   -0.945978 N.am        1 UNL1     -0.2772
     10 C         1.066261   8.721661   -0.100473 C.2        1 UNL1     0.1049
     11 C         0.935559   7.43249   -0.355768 C.2        1 UNL1     0.0801
     12 C         0.572864   8.331575   2.320627 C.ar        1 UNL1     0.0753
     13 C         0.649073   6.932167   2.030011 C.ar        1 UNL1     0.0305
     14 C         0.702568   6.437828   0.656032 C.2        1 UNL1     0.0924
     15 N         1.310531   6.723066   -1.434027 N.pl3        1 UNL1     -0.3170
     16 C         0.783261   5.392149   -1.289459 C.3        1 UNL1     0.1275
     17 N         0.676526   5.187963   0.202063 N.2        1 UNL1     -0.2557
     18 C         -0.647965   5.41297   -1.81753 C.3        1 UNL1     0.0016
     19 C         -0.63134   5.929774   -3.247294 C.3        1 UNL1     0.0026
     20 N         0.211054   5.05498   -4.05112 N.3        1 UNL1     -0.3018
     21 C         1.592744   4.921837   -3.584673 C.3        1 UNL1     0.0026
     22 C         1.552393   4.39706   -2.148401 C.3        1 UNL1     0.0016
     23 C         0.058619   5.27781   -5.475113 C.3        1 UNL1     0.0012
     24 C         -1.41131   5.112336   -5.891865 C.3        1 UNL1     -0.0339
     25 C         -1.967478   6.40263   -6.516266 C.3        1 UNL1     -0.0615
     26 C         -1.555832   3.928702   -6.832559 C.3        1 UNL1     -0.0615
     27 C         0.400527   8.789559   3.624724 C.ar        1 UNL1     0.1347
     28 C         0.252387   7.945935   4.711188 C.ar        1 UNL1     0.0342
     29 C         0.379687   6.573754   4.407744 C.ar        1 UNL1     0.1435
     30 C         0.588568   6.101707   3.111302 C.ar        1 UNL1     0.0774
     31 O         0.15092   5.621929   5.338712 O.3        1 UNL1     -0.4436
     32 C         -0.092162   4.426078   4.582587 C.3        1 UNL1     0.3143
     33 C         0.579824   4.659868   3.244682 C.2        1 UNL1     0.2504
     34 C         -0.184281   8.353437   6.090812 C.3        1 UNL1     -0.0327
     35 O         0.61991   3.362569   5.226911 O.2        1 UNL1     -0.4528
     36 C         -1.374771   0.20748   4.537895 C.3        1 UNL1     0.0854
     37 C         -1.795839   -0.422923   3.154849 C.3        1 UNL1     0.0236
     38 C         -1.350394   -1.949   2.944107 C.3        1 UNL1     0.1131
     39 C         0.152755   -2.370541   3.199284 C.3        1 UNL1     0.0200
     40 C         1.403585   -1.41661   2.644418 C.3        1 UNL1     0.0661
     41 C         1.564842   -0.806398   1.069855 C.3        1 UNL1     0.0091
     42 C         2.313281   0.757603   0.470569 C.3        1 UNL1     0.0661
     43 C         0.593659   9.276625   1.17664 C.2        1 UNL1     0.2131
     44 O         0.156108   10.411566   1.233164 O.2        1 UNL1     -0.2851
     45 O         0.382327   10.167998   3.827239 O.3        1 UNL1     -0.5056
     46 O         1.027333   3.841311   2.47296 O.2        1 UNL1     -0.2836
     47 C         4.735725   1.648326   1.145991 C.3        1 UNL1     -0.0566
     48 O         3.098076   0.10335   -0.604219 O.3        1 UNL1     -0.3909
     49 C         0.247479   -0.971137   0.345349 C.3        1 UNL1     -0.0577
     50 O         1.724706   -0.413253   3.586691 O.3        1 UNL1     -0.3910
     51 O         -0.518746   -0.577032   5.33739 O.3        1 UNL1     -0.3753
     52 C         -1.741875   0.62624   1.996707 C.3        1 UNL1     -0.0564
     53 O         -2.049488   -2.626419   1.801873 O.3        1 UNL1     -0.4608
     54 C         -3.407436   -2.731005   1.650317 C.2        1 UNL1     0.3042
     55 O         -4.051203   -3.738742   1.360718 O.2        1 UNL1     -0.2512
     56 C         -4.144617   -1.453686   1.936208 C.3        1 UNL1     0.0332
     57 C         0.249361   -2.930907   4.69422 C.3        1 UNL1     -0.0567
     58 C         -1.621426   4.348778   4.366009 C.3        1 UNL1     0.0210
     59 C         0.284661   0.160285   6.25759 C.3        1 UNL1     0.0372
     60 C         -0.760835   1.560534   4.451362 C.2        1 UNL1     -0.0208
     61 C         0.316495   2.061341   5.057413 C.2        1 UNL1     0.0882
     62 H         2.838078   2.564388   1.525576 H        1 UNL1     0.0365
     63 H         3.221225   4.531613   1.133846 H        1 UNL1     0.0576
     64 H         4.635384   4.870282   -1.583181 H        1 UNL1     0.0615
     65 H         3.55432   6.910645   0.520644 H        1 UNL1     0.0622
     66 H         -2.32143   0.340262   5.080345 H        1 UNL1     0.0645
     67 H         -2.892738   -0.522638   3.228531 H        1 UNL1     0.0362
     68 H         -1.927535   -2.422458   3.752976 H        1 UNL1     0.0741
     69 H         0.337922   -3.315167   2.705519 H        1 UNL1     0.0359
     70 H         2.239426   -2.138848   2.713726 H        1 UNL1     0.0600
     71 H         2.167727   -1.614076   0.610351 H        1 UNL1     0.0348
     72 H         2.720665   0.593245   1.478706 H        1 UNL1     0.0602
     73 H         -1.396824   2.197253   3.888019 H        1 UNL1     0.0628
     74 H         1.049069   1.466371   5.603841 H        1 UNL1     0.1022
     75 H         3.958678   8.182764   -3.385672 H        1 UNL1     0.0279
     76 H         4.103644   9.729176   -2.650216 H        1 UNL1     0.0279
     77 H         5.492315   8.57095   -2.723704 H        1 UNL1     0.0279
     78 H         1.767319   9.047292   -1.882295 H        1 UNL1     0.1553
     79 H         1.514894   7.132913   -2.326884 H        1 UNL1     0.1484
     80 H         -1.064054   4.399742   -1.762702 H        1 UNL1     0.0317
     81 H         -1.286033   6.048023   -1.193648 H        1 UNL1     0.0317
     82 H         -0.283259   6.9719   -3.299497 H        1 UNL1     0.0428
     83 H         -1.661852   5.938148   -3.603701 H        1 UNL1     0.0428
     84 H         2.181385   4.198678   -4.157695 H        1 UNL1     0.0428
     85 H         2.151485   5.862289   -3.687988 H        1 UNL1     0.0428
     86 H         2.573183   4.186595   -1.888246 H        1 UNL1     0.0317
     87 H         1.075385   3.40967   -2.123491 H        1 UNL1     0.0317
     88 H         0.370476   6.307216   -5.695029 H        1 UNL1     0.0429
     89 H         0.711837   4.613054   -6.054924 H        1 UNL1     0.0429
     90 H         -2.010068   4.866426   -5.006862 H        1 UNL1     0.0308
     91 H         -1.551322   6.573294   -7.513658 H        1 UNL1     0.0233
     92 H         -3.057029   6.360181   -6.58472 H        1 UNL1     0.0233
     93 H         -1.733091   7.291081   -5.917473 H        1 UNL1     0.0233
     94 H         -0.61709   3.756681   -7.370153 H        1 UNL1     0.0233
     95 H         -1.78849   3.024772   -6.262696 H        1 UNL1     0.0233
     96 H         -2.34868   4.096969   -7.566756 H        1 UNL1     0.0233
     97 H         -0.305329   7.498299   6.74908 H        1 UNL1     0.0280
     98 H         0.548516   9.008152   6.580315 H        1 UNL1     0.0280
     99 H         -1.149262   8.882915   6.031135 H        1 UNL1     0.0280
     100 H         0.327466   10.678866   3.038806 H        1 UNL1     0.2922
     101 H         4.580292   1.209152   2.131193 H        1 UNL1     0.0236
     102 H         5.57045   2.348428   1.137362 H        1 UNL1     0.0236
     103 H         5.067501   0.807655   0.514018 H        1 UNL1     0.0236
     104 H         2.465705   -0.339493   -1.203358 H        1 UNL1     0.2098
     105 H         0.28907   -1.630663   -0.517847 H        1 UNL1     0.0234
     106 H         -0.593609   -1.238521   0.984884 H        1 UNL1     0.0234
     107 H         -0.0   0.0   0.0 H        1 UNL1     0.0234
     108 H         2.110274   0.335849   3.092776 H        1 UNL1     0.2098
     109 H         -0.802082   0.571901   1.429654 H        1 UNL1     0.0234
     110 H         -2.590255   0.551058   1.307982 H        1 UNL1     0.0234
     111 H         -1.799468   1.654168   2.378799 H        1 UNL1     0.0234
     112 H         -4.871528   -1.614987   2.738036 H        1 UNL1     0.0342
     113 H         -3.46798   -0.636284   2.180873 H        1 UNL1     0.0342
     114 H         -4.698867   -1.167603   1.031704 H        1 UNL1     0.0342
     115 H         -0.672772   -2.742887   5.261237 H        1 UNL1     0.0234
     116 H         0.459655   -4.000568   4.754647 H        1 UNL1     0.0234
     117 H         0.992858   -2.402049   5.315075 H        1 UNL1     0.0234
     118 H         -2.147321   3.962745   5.25675 H        1 UNL1     0.0309
     119 H         -2.063366   5.30751   4.076657 H        1 UNL1     0.0309
     120 H         -1.899317   3.637428   3.580602 H        1 UNL1     0.0309
     121 H         1.197517   0.451328   5.738605 H        1 UNL1     0.0524
     122 H         -0.211578   1.083757   6.599616 H        1 UNL1     0.0524
     123 H         0.524083   -0.452302   7.122176 H        1 UNL1     0.0524
@<TRIPOS>BOND
     1     1     2    1
     2     1    42    1
     3     2     3    2
     4     3     4    1
     5     4     5    2
     6     5     7    1
     7     6    75    1
     8     6    76    1
     9     6    77    1
    10     7     9   am
    11     9    10    1
    12    10    11    2
    13    10    43    1
    14    11    14    1
    15    11    15    1
    16    12    13   ar
    17    12    27   ar
    18    12    43    1
    19    13    14    1
    20    13    30   ar
    21    14    17    2
    22    15    16    1
    23    16    17    1
    24    16    18    1
    25    16    22    1
    26    18    19    1
    27    19    20    1
    28    20    21    1
    29    21    22    1
    30    23    24    1
    31    23    88    1
    32    23    89    1
    33    24    25    1
    34    24    26    1
    35    24    90    1
    36    25    91    1
    37    25    92    1
    38    25    93    1
    39    26    94    1
    40    26    95    1
    41    26    96    1
    42    27    28   ar
    43    28    29   ar
    44    29    30   ar
    45    29    31    1
    46    30    33    1
    47    31    32    1
    48    32    33    1
    49    32    35    1
    50    34    97    1
    51    34    98    1
    52    34    99    1
    53    35    61    1
    54    36    37    1
    55    36    60    1
    56    37    38    1
    57    38    39    1
    58    39    40    1
    59    40    41    1
    60    41    42    1
    61    45   100    1
    62    47   101    1
    63    47   102    1
    64    47   103    1
    65    48   104    1
    66    49   105    1
    67    49   106    1
    68    49   107    1
    69    50   108    1
    70    51    59    1
    71    52   109    1
    72    52   110    1
    73    52   111    1
    74    53    54    1
    75    54    55    2
    76    54    56    1
    77    56   112    1
    78    56   113    1
    79    56   114    1
    80    57   115    1
    81    57   116    1
    82    57   117    1
    83    58   118    1
    84    58   119    1
    85    58   120    1
    86    59   121    1
    87    59   122    1
    88    59   123    1
    89    60    61    2
    90     1    47    1
    91     1    62    1
    92     2    63    1
    93     3    64    1
    94     4    65    1
    95     5     6    1
    96     7     8    2
    97     9    78    1
    98    15    79    1
    99    18    80    1
   100    18    81    1
   101    19    82    1
   102    19    83    1
   103    20    23    1
   104    21    84    1
   105    21    85    1
   106    22    86    1
   107    22    87    1
   108    27    45    1
   109    28    34    1
   110    32    58    1
   111    33    46    2
   112    36    51    1
   113    36    66    1
   114    37    52    1
   115    37    67    1
   116    38    53    1
   117    38    68    1
   118    42    48    1
   119    42    72    1
   120    43    44    2
   121    60    73    1
   122    61    74    1
   123    39    69    1
   124    39    57    1
   125    40    70    1
   126    40    50    1
   127    41    71    1
   128    41    49    1
