@<TRIPOS>MOLECULE
*****
 123 128 0 0 0
SMALL
GASTEIGER

@<TRIPOS>ATOM
     1 C         4.599793   2.846178   0.636624 C.3        1 UNL1     0.0009
     2 C         5.625971   4.225546   -0.057164 C.2        1 UNL1     -0.0787
     3 C         6.802528   4.681365   -0.767086 C.2        1 UNL1     -0.0649
     4 C         7.17697   6.258409   -1.256046 C.2        1 UNL1     -0.0542
     5 C         7.958174   7.046196   -2.137064 C.2        1 UNL1     0.0115
     6 C         9.131664   7.004824   -3.154182 C.3        1 UNL1     -0.0348
     7 C         7.531121   8.570866   -2.40163 C.2        1 UNL1     0.2441
     8 O         8.095449   9.520687   -1.876369 O.2        1 UNL1     -0.2702
     9 N         6.640557   8.755548   -3.473515 N.am        1 UNL1     -0.2772
     10 C         5.339212   8.636997   -3.042507 C.2        1 UNL1     0.1049
     11 C         4.867197   7.407178   -2.947797 C.2        1 UNL1     0.0801
     12 C         3.757099   9.42189   -1.27101 C.ar        1 UNL1     0.0753
     13 C         3.430873   8.04401   -1.062125 C.ar        1 UNL1     0.0305
     14 C         3.878975   7.003247   -1.984659 C.2        1 UNL1     0.0924
     15 N         5.376455   6.249118   -3.401758 N.pl3        1 UNL1     -0.3170
     16 C         4.39082   5.222569   -3.189686 C.3        1 UNL1     0.1275
     17 N         3.592547   5.704576   -2.00303 N.2        1 UNL1     -0.2557
     18 C         3.43939   5.256019   -4.381896 C.3        1 UNL1     0.0016
     19 C         4.25143   5.092876   -5.656872 C.3        1 UNL1     0.0026
     20 N         4.96986   3.827537   -5.595195 N.3        1 UNL1     -0.3018
     21 C         5.865377   3.676397   -4.446468 C.3        1 UNL1     0.0026
     22 C         5.028017   3.839326   -3.176752 C.3        1 UNL1     0.0016
     23 C         5.531824   3.43528   -6.872292 C.3        1 UNL1     0.0012
     24 C         4.417223   3.029262   -7.849313 C.3        1 UNL1     -0.0339
     25 C         4.100622   4.159562   -8.842411 C.3        1 UNL1     -0.0615
     26 C         4.79551   1.744879   -8.566278 C.3        1 UNL1     -0.0615
     27 C         3.22712   10.42045   -0.457305 C.ar        1 UNL1     0.1347
     28 C         2.332663   10.168129   0.567552 C.ar        1 UNL1     0.0342
     29 C         2.064144   8.800133   0.785838 C.ar        1 UNL1     0.1435
     30 C         2.615938   7.786216   0.0018 C.ar        1 UNL1     0.0774
     31 O         1.12954   8.398482   1.67477 O.3        1 UNL1     -0.4436
     32 C         0.81204   7.053931   1.284576 C.3        1 UNL1     0.3143
     33 C         2.023335   6.568466   0.514316 C.2        1 UNL1     0.2504
     34 C         1.533358   11.199556   1.314123 C.3        1 UNL1     -0.0327
     35 O         0.736827   6.269563   2.481389 O.2        1 UNL1     -0.4528
     36 C         -1.776445   3.51664   1.765171 C.3        1 UNL1     0.0854
     37 C         -1.766927   2.432121   0.620072 C.3        1 UNL1     0.0236
     38 C         -1.868166   0.91383   1.126321 C.3        1 UNL1     0.1131
     39 C         -0.887939   0.395324   2.254406 C.3        1 UNL1     0.0200
     40 C         0.732747   0.787687   2.211214 C.3        1 UNL1     0.0661
     41 C         1.76033   0.620096   0.871962 C.3        1 UNL1     0.0091
     42 C         3.207997   1.618924   0.350421 C.3        1 UNL1     0.0661
     43 C         4.607892   9.760814   -2.438718 C.2        1 UNL1     0.2131
     44 O         4.637941   10.864716   -2.951782 O.2        1 UNL1     -0.2851
     45 O         3.63116   11.731819   -0.699173 O.3        1 UNL1     -0.5056
     46 O         2.422056   5.433925   0.373987 O.2        1 UNL1     -0.2836
     47 C         5.250797   2.287949   1.93067 C.3        1 UNL1     -0.0566
     48 O         4.075012   0.441566   0.102973 O.3        1 UNL1     -0.3909
     49 C         0.91871   0.384955   -0.362493 C.3        1 UNL1     -0.0577
     50 O         0.964967   2.028962   2.846062 O.3        1 UNL1     -0.3910
     51 O         -1.696375   3.021954   3.08286 O.3        1 UNL1     -0.3753
     52 C         -0.844502   2.851493   -0.570814 C.3        1 UNL1     -0.0564
     53 O         -2.208414   -0.060982   0.037147 O.3        1 UNL1     -0.4608
     54 C         -1.969217   -1.409816   0.074038 C.2        1 UNL1     0.3042
     55 O         -1.160943   -2.043796   -0.603163 O.2        1 UNL1     -0.2512
     56 C         -2.773557   -2.134979   1.115138 C.3        1 UNL1     0.0332
     57 C         -1.650034   0.528813   3.654251 C.3        1 UNL1     -0.0567
     58 C         -0.3891   7.151789   0.315444 C.3        1 UNL1     0.0210
     59 C         -2.281701   3.863277   4.07555 C.3        1 UNL1     0.0372
     60 C         -0.735716   4.573148   1.639332 C.2        1 UNL1     -0.0208
     61 C         0.080988   5.095506   2.555237 C.2        1 UNL1     0.0882
     62 H         3.85523   3.585822   0.954844 H        1 UNL1     0.0365
     63 H         5.060161   5.093547   0.287659 H        1 UNL1     0.0576
     64 H         7.511102   3.978707   -1.211273 H        1 UNL1     0.0615
     65 H         6.468964   6.878745   -0.699813 H        1 UNL1     0.0622
     66 H         -2.741844   4.029601   1.651493 H        1 UNL1     0.0645
     67 H         -2.742226   2.562101   0.119616 H        1 UNL1     0.0362
     68 H         -2.863588   0.942258   1.595202 H        1 UNL1     0.0741
     69 H         -0.870806   -0.686129   2.230472 H        1 UNL1     0.0359
     70 H         1.129882   0.035967   2.919918 H        1 UNL1     0.0600
     71 H         2.15862   -0.396267   1.059922 H        1 UNL1     0.0348
     72 H         3.055448   1.839882   1.416827 H        1 UNL1     0.0602
     73 H         -0.788509   5.001624   0.669348 H        1 UNL1     0.0628
     74 H         0.236185   4.680276   3.551598 H        1 UNL1     0.1022
     75 H         9.510571   5.961142   -3.273313 H        1 UNL1     0.0279
     76 H         8.896468   7.286947   -4.177978 H        1 UNL1     0.0279
     77 H         10.030763   7.521338   -2.787391 H        1 UNL1     0.0279
     78 H         6.797253   8.036046   -4.176253 H        1 UNL1     0.1553
     79 H         6.075955   6.191415   -4.118907 H        1 UNL1     0.1484
     80 H         2.700403   4.453129   -4.272209 H        1 UNL1     0.0317
     81 H         2.878717   6.196536   -4.408809 H        1 UNL1     0.0317
     82 H         4.943637   5.934053   -5.809135 H        1 UNL1     0.0428
     83 H         3.553815   5.121394   -6.49447 H        1 UNL1     0.0428
     84 H         6.331207   2.688238   -4.380472 H        1 UNL1     0.0428
     85 H         6.716336   4.369634   -4.497543 H        1 UNL1     0.0428
     86 H         5.684491   3.591885   -2.363239 H        1 UNL1     0.0317
     87 H         4.260849   3.05674   -3.130841 H        1 UNL1     0.0317
     88 H         6.065526   4.298841   -7.290287 H        1 UNL1     0.0429
     89 H         6.267375   2.62927   -6.753609 H        1 UNL1     0.0429
     90 H         3.50813   2.79865   -7.281349 H        1 UNL1     0.0308
     91 H         4.991134   4.455918   -9.404784 H        1 UNL1     0.0233
     92 H         3.320448   3.851467   -9.542422 H        1 UNL1     0.0233
     93 H         3.724992   5.060999   -8.343264 H        1 UNL1     0.0233
     94 H         4.114078   1.565706   -9.404958 H        1 UNL1     0.0233
     95 H         5.809726   1.825614   -8.967289 H        1 UNL1     0.0233
     96 H         4.749416   0.883898   -7.893555 H        1 UNL1     0.0233
     97 H         0.865334   10.748875   2.042038 H        1 UNL1     0.0280
     98 H         2.173336   11.889081   1.880021 H        1 UNL1     0.0280
     99 H         0.92618   11.782259   0.602162 H        1 UNL1     0.0280
     100 H         2.925742   12.342701   -0.820957 H        1 UNL1     0.2922
     101 H         4.612368   1.516078   2.359948 H        1 UNL1     0.0236
     102 H         5.498384   3.063358   2.654842 H        1 UNL1     0.0236
     103 H         6.207281   1.778397   1.72649 H        1 UNL1     0.0236
     104 H         4.593698   0.281246   0.91552 H        1 UNL1     0.2098
     105 H         0.70043   1.28297   -0.934973 H        1 UNL1     0.0234
     106 H         1.285585   -0.402668   -1.020506 H        1 UNL1     0.0234
     107 H         0.0   -0.0   0.0 H        1 UNL1     0.0234
     108 H         0.519927   2.715372   2.312631 H        1 UNL1     0.2098
     109 H         0.195617   3.012462   -0.254658 H        1 UNL1     0.0234
     110 H         -0.868357   2.141411   -1.404456 H        1 UNL1     0.0234
     111 H         -1.168919   3.799829   -1.019543 H        1 UNL1     0.0234
     112 H         -2.520692   -3.199555   1.105981 H        1 UNL1     0.0342
     113 H         -2.636791   -1.709443   2.108142 H        1 UNL1     0.0342
     114 H         -3.836834   -2.039145   0.85548 H        1 UNL1     0.0342
     115 H         -2.588041   -0.043219   3.664766 H        1 UNL1     0.0234
     116 H         -1.059175   0.206425   4.513902 H        1 UNL1     0.0234
     117 H         -2.019907   1.548372   3.858297 H        1 UNL1     0.0234
     118 H         -1.350722   7.224477   0.853037 H        1 UNL1     0.0309
     119 H         -0.307423   7.987331   -0.38698 H        1 UNL1     0.0309
     120 H         -0.509537   6.251474   -0.296956 H        1 UNL1     0.0309
     121 H         -1.711303   4.791418   4.099141 H        1 UNL1     0.0524
     122 H         -3.327563   4.122252   3.840723 H        1 UNL1     0.0524
     123 H         -2.248208   3.377945   5.04685 H        1 UNL1     0.0524
@<TRIPOS>BOND
     1     1     2    1
     2     1    42    1
     3     2     3    2
     4     3     4    1
     5     4     5    2
     6     5     7    1
     7     6    75    1
     8     6    76    1
     9     6    77    1
    10     7     9   am
    11     9    10    1
    12    10    11    2
    13    10    43    1
    14    11    14    1
    15    11    15    1
    16    12    13   ar
    17    12    27   ar
    18    12    43    1
    19    13    14    1
    20    13    30   ar
    21    14    17    2
    22    15    16    1
    23    16    17    1
    24    16    18    1
    25    16    22    1
    26    18    19    1
    27    19    20    1
    28    20    21    1
    29    21    22    1
    30    23    24    1
    31    23    88    1
    32    23    89    1
    33    24    25    1
    34    24    26    1
    35    24    90    1
    36    25    91    1
    37    25    92    1
    38    25    93    1
    39    26    94    1
    40    26    95    1
    41    26    96    1
    42    27    28   ar
    43    28    29   ar
    44    29    30   ar
    45    29    31    1
    46    30    33    1
    47    31    32    1
    48    32    33    1
    49    32    35    1
    50    34    97    1
    51    34    98    1
    52    34    99    1
    53    35    61    1
    54    36    37    1
    55    36    60    1
    56    37    38    1
    57    38    39    1
    58    39    40    1
    59    40    41    1
    60    41    42    1
    61    45   100    1
    62    47   101    1
    63    47   102    1
    64    47   103    1
    65    48   104    1
    66    49   105    1
    67    49   106    1
    68    49   107    1
    69    50   108    1
    70    51    59    1
    71    52   109    1
    72    52   110    1
    73    52   111    1
    74    53    54    1
    75    54    55    2
    76    54    56    1
    77    56   112    1
    78    56   113    1
    79    56   114    1
    80    57   115    1
    81    57   116    1
    82    57   117    1
    83    58   118    1
    84    58   119    1
    85    58   120    1
    86    59   121    1
    87    59   122    1
    88    59   123    1
    89    60    61    2
    90     1    47    1
    91     1    62    1
    92     2    63    1
    93     3    64    1
    94     4    65    1
    95     5     6    1
    96     7     8    2
    97     9    78    1
    98    15    79    1
    99    18    80    1
   100    18    81    1
   101    19    82    1
   102    19    83    1
   103    20    23    1
   104    21    84    1
   105    21    85    1
   106    22    86    1
   107    22    87    1
   108    27    45    1
   109    28    34    1
   110    32    58    1
   111    33    46    2
   112    36    51    1
   113    36    66    1
   114    37    52    1
   115    37    67    1
   116    38    53    1
   117    38    68    1
   118    42    48    1
   119    42    72    1
   120    43    44    2
   121    60    73    1
   122    61    74    1
   123    39    69    1
   124    39    57    1
   125    40    70    1
   126    40    50    1
   127    41    71    1
   128    41    49    1
