@<TRIPOS>MOLECULE
*****
 123 128 0 0 0
SMALL
GASTEIGER

@<TRIPOS>ATOM
     1 C         -1.429635   3.717811   1.516377 C.3        1 UNL1     0.0009
     2 C         -3.155651   4.32093   1.823217 C.2        1 UNL1     -0.0787
     3 C         -4.36978   4.949565   1.347028 C.2        1 UNL1     -0.0649
     4 C         -5.834034   5.144647   2.17423 C.2        1 UNL1     -0.0542
     5 C         -7.223432   5.383778   2.034711 C.2        1 UNL1     0.0115
     6 C         -8.333309   5.792064   1.027338 C.3        1 UNL1     -0.0348
     7 C         -8.199006   5.033044   3.260366 C.2        1 UNL1     0.2441
     8 O         -8.651295   5.882944   4.015104 O.2        1 UNL1     -0.2702
     9 N         -8.707406   3.722466   3.252073 N.am        1 UNL1     -0.2772
     10 C         -7.847561   2.869706   3.905365 C.2        1 UNL1     0.1049
     11 C         -6.832608   2.410493   3.195988 C.2        1 UNL1     0.0801
     12 C         -6.536611   2.610957   6.020026 C.ar        1 UNL1     0.0753
     13 C         -5.406172   2.32101   5.191385 C.ar        1 UNL1     0.0305
     14 C         -5.549999   2.082519   3.75699 C.2        1 UNL1     0.0924
     15 N         -6.607128   2.469359   1.872273 N.pl3        1 UNL1     -0.3170
     16 C         -5.445668   1.668947   1.588358 C.3        1 UNL1     0.1275
     17 N         -4.638953   1.708106   2.86327 N.2        1 UNL1     -0.2557
     18 C         -5.917981   0.226862   1.43021 C.3        1 UNL1     0.0016
     19 C         -6.990156   0.181614   0.353184 C.3        1 UNL1     0.0026
     20 N         -6.425615   0.687426   -0.89039 N.3        1 UNL1     -0.3018
     21 C         -5.887862   2.047715   -0.821095 C.3        1 UNL1     0.0026
     22 C         -4.809556   2.069058   0.263662 C.3        1 UNL1     0.0016
     23 C         -7.26083   0.41135   -2.042277 C.3        1 UNL1     0.0012
     24 C         -7.848074   1.714616   -2.606546 C.3        1 UNL1     -0.0339
     25 C         -9.258086   1.49462   -3.178843 C.3        1 UNL1     -0.0615
     26 C         -7.840465   2.794527   -1.538597 C.3        1 UNL1     -0.0615
     27 C         -6.409369   2.717509   7.402984 C.ar        1 UNL1     0.1347
     28 C         -5.215401   2.516066   8.072245 C.ar        1 UNL1     0.0342
     29 C         -4.106594   2.280093   7.231989 C.ar        1 UNL1     0.1435
     30 C         -4.212261   2.206466   5.842517 C.ar        1 UNL1     0.0774
     31 O         -2.896183   1.955905   7.736779 O.3        1 UNL1     -0.4436
     32 C         -2.197565   1.346425   6.640723 C.3        1 UNL1     0.3143
     33 C         -2.875011   1.878644   5.394118 C.2        1 UNL1     0.2504
     34 C         -5.052607   2.365616   9.559175 C.3        1 UNL1     -0.0327
     35 O         -0.862462   1.86675   6.644449 O.2        1 UNL1     -0.4528
     36 C         1.32887   -0.879891   5.208442 C.3        1 UNL1     0.0854
     37 C         1.226957   -1.608781   3.813503 C.3        1 UNL1     0.0236
     38 C         2.562765   -1.562155   2.927394 C.3        1 UNL1     0.1131
     39 C         3.285042   -0.178919   2.668081 C.3        1 UNL1     0.0200
     40 C         2.396403   1.178919   2.282034 C.3        1 UNL1     0.0661
     41 C         1.201769   1.27648   1.081641 C.3        1 UNL1     0.0091
     42 C         -0.327589   2.286654   1.004082 C.3        1 UNL1     0.0661
     43 C         -7.865622   2.705977   5.366604 C.2        1 UNL1     0.2131
     44 O         -8.919018   2.556104   5.958747 O.2        1 UNL1     -0.2851
     45 O         -7.549929   3.047283   8.132238 O.3        1 UNL1     -0.5056
     46 O         -2.409101   2.020965   4.285729 O.2        1 UNL1     -0.2836
     47 C         -0.444992   4.915716   1.442334 C.3        1 UNL1     -0.0566
     48 O         -0.084794   2.753924   -0.382218 O.3        1 UNL1     -0.3909
     49 C         0.827786   -0.124106   0.650375 C.3        1 UNL1     -0.0577
     50 O         1.961325   1.842401   3.451745 O.3        1 UNL1     -0.3910
     51 O         2.505643   -0.135967   5.430286 O.3        1 UNL1     -0.3753
     52 C         -0.195414   -1.459296   3.181472 C.3        1 UNL1     -0.0564
     53 O         2.56232   -2.539419   1.788412 O.3        1 UNL1     -0.4608
     54 C         3.653599   -3.234256   1.336482 C.2        1 UNL1     0.3042
     55 O         3.995825   -4.373723   1.650069 O.2        1 UNL1     -0.2512
     56 C         4.453165   -2.492615   0.303344 C.3        1 UNL1     0.0332
     57 C         4.4419   -0.026385   3.761967 C.3        1 UNL1     -0.0567
     58 C         -2.464089   -0.173449   6.743087 C.3        1 UNL1     0.0210
     59 C         2.297453   1.168105   5.970579 C.3        1 UNL1     0.0372
     60 C         0.186439   0.016617   5.534459 C.2        1 UNL1     -0.0208
     61 C         0.172816   1.24913   6.04384 C.2        1 UNL1     0.0882
     62 H         -1.395823   3.348254   2.548364 H        1 UNL1     0.0365
     63 H         -3.25192   4.126728   2.893492 H        1 UNL1     0.0576
     64 H         -4.498902   5.223514   0.297558 H        1 UNL1     0.0615
     65 H         -5.577216   4.92485   3.214046 H        1 UNL1     0.0622
     66 H         1.294645   -1.692559   5.947662 H        1 UNL1     0.0645
     67 H         1.173731   -2.680144   4.074092 H        1 UNL1     0.0362
     68 H         3.240412   -2.126129   3.586371 H        1 UNL1     0.0741
     69 H         3.94114   -0.283569   1.81427 H        1 UNL1     0.0359
     70 H         3.200268   1.825046   1.880312 H        1 UNL1     0.0600
     71 H         1.81702   1.610839   0.223371 H        1 UNL1     0.0348
     72 H         0.316963   2.769268   1.75305 H        1 UNL1     0.0602
     73 H         -0.722517   -0.519622   5.418295 H        1 UNL1     0.0628
     74 H         1.052674   1.886071   6.140762 H        1 UNL1     0.1022
     75 H         -8.125634   6.804467   0.60432 H        1 UNL1     0.0279
     76 H         -8.426484   5.179312   0.133514 H        1 UNL1     0.0279
     77 H         -9.307625   5.954874   1.510972 H        1 UNL1     0.0279
     78 H         -8.793142   3.394918   2.292157 H        1 UNL1     0.1553
     79 H         -7.323394   2.648433   1.192693 H        1 UNL1     0.1484
     80 H         -5.059864   -0.403667   1.167846 H        1 UNL1     0.0317
     81 H         -6.314634   -0.160779   2.374695 H        1 UNL1     0.0317
     82 H         -7.883582   0.753655   0.643823 H        1 UNL1     0.0428
     83 H         -7.314097   -0.855231   0.25798 H        1 UNL1     0.0428
     84 H         -5.398842   2.373622   -1.74438 H        1 UNL1     0.0428
     85 H         -6.679617   2.792625   -0.661248 H        1 UNL1     0.0428
     86 H         -4.349017   3.037146   0.195118 H        1 UNL1     0.0317
     87 H         -3.996918   1.382023   -0.002228 H        1 UNL1     0.0317
     88 H         -6.634292   -0.053016   -2.815006 H        1 UNL1     0.0429
     89 H         -8.053903   -0.306694   -1.796876 H        1 UNL1     0.0429
     90 H         -7.19882   2.082998   -3.40965 H        1 UNL1     0.0308
     91 H         -9.877901   0.907472   -2.4946 H        1 UNL1     0.0233
     92 H         -9.748467   2.450785   -3.376035 H        1 UNL1     0.0233
     93 H         -9.241698   0.956566   -4.134387 H        1 UNL1     0.0233
     94 H         -8.578136   3.567975   -1.778299 H        1 UNL1     0.0233
     95 H         -8.106756   2.363479   -0.569449 H        1 UNL1     0.0233
     96 H         -6.857928   3.267655   -1.456514 H        1 UNL1     0.0233
     97 H         -4.85032   1.337692   9.844978 H        1 UNL1     0.0280
     98 H         -4.211359   2.955984   9.945212 H        1 UNL1     0.0280
     99 H         -5.976096   2.689916   10.066218 H        1 UNL1     0.0280
     100 H         -8.205811   2.372967   8.15943 H        1 UNL1     0.2922
     101 H         0.580164   4.547477   1.408987 H        1 UNL1     0.0236
     102 H         -0.592869   5.642116   2.240744 H        1 UNL1     0.0236
     103 H         -0.565206   5.493641   0.510806 H        1 UNL1     0.0236
     104 H         0.580871   2.160125   -0.781297 H        1 UNL1     0.2098
     105 H         1.606397   -0.648028   0.101667 H        1 UNL1     0.0234
     106 H         0.436145   -0.756552   1.446965 H        1 UNL1     0.0234
     107 H         -0.0   0.0   0.0 H        1 UNL1     0.0234
     108 H         2.738067   2.293109   3.835544 H        1 UNL1     0.2098
     109 H         -0.364987   -2.174788   2.364754 H        1 UNL1     0.0234
     110 H         -1.00371   -1.543245   3.915879 H        1 UNL1     0.0234
     111 H         -0.339446   -0.464306   2.739662 H        1 UNL1     0.0234
     112 H         4.714276   -3.165722   -0.518905 H        1 UNL1     0.0342
     113 H         3.929928   -1.611229   -0.064387 H        1 UNL1     0.0342
     114 H         5.387873   -2.153858   0.77103 H        1 UNL1     0.0342
     115 H         5.440183   -0.154151   3.321179 H        1 UNL1     0.0234
     116 H         4.434297   0.931676   4.285523 H        1 UNL1     0.0234
     117 H         4.439307   -0.828647   4.5198 H        1 UNL1     0.0234
     118 H         -1.601418   -0.718152   7.16511 H        1 UNL1     0.0309
     119 H         -3.359318   -0.414407   7.325073 H        1 UNL1     0.0309
     120 H         -2.604137   -0.642598   5.763091 H        1 UNL1     0.0309
     121 H         3.144948   1.7863   5.675713 H        1 UNL1     0.0524
     122 H         1.385278   1.644439   5.574245 H        1 UNL1     0.0524
     123 H         2.227764   1.119512   7.053573 H        1 UNL1     0.0524
@<TRIPOS>BOND
     1     1     2    1
     2     1    42    1
     3     2     3    2
     4     3     4    1
     5     4     5    2
     6     5     7    1
     7     6    75    1
     8     6    76    1
     9     6    77    1
    10     7     9   am
    11     9    10    1
    12    10    11    2
    13    10    43    1
    14    11    14    1
    15    11    15    1
    16    12    13   ar
    17    12    27   ar
    18    12    43    1
    19    13    14    1
    20    13    30   ar
    21    14    17    2
    22    15    16    1
    23    16    17    1
    24    16    18    1
    25    16    22    1
    26    18    19    1
    27    19    20    1
    28    20    21    1
    29    21    22    1
    30    23    24    1
    31    23    88    1
    32    23    89    1
    33    24    25    1
    34    24    26    1
    35    24    90    1
    36    25    91    1
    37    25    92    1
    38    25    93    1
    39    26    94    1
    40    26    95    1
    41    26    96    1
    42    27    28   ar
    43    28    29   ar
    44    29    30   ar
    45    29    31    1
    46    30    33    1
    47    31    32    1
    48    32    33    1
    49    32    35    1
    50    34    97    1
    51    34    98    1
    52    34    99    1
    53    35    61    1
    54    36    37    1
    55    36    60    1
    56    37    38    1
    57    38    39    1
    58    39    40    1
    59    40    41    1
    60    41    42    1
    61    45   100    1
    62    47   101    1
    63    47   102    1
    64    47   103    1
    65    48   104    1
    66    49   105    1
    67    49   106    1
    68    49   107    1
    69    50   108    1
    70    51    59    1
    71    52   109    1
    72    52   110    1
    73    52   111    1
    74    53    54    1
    75    54    55    2
    76    54    56    1
    77    56   112    1
    78    56   113    1
    79    56   114    1
    80    57   115    1
    81    57   116    1
    82    57   117    1
    83    58   118    1
    84    58   119    1
    85    58   120    1
    86    59   121    1
    87    59   122    1
    88    59   123    1
    89    60    61    2
    90     1    47    1
    91     1    62    1
    92     2    63    1
    93     3    64    1
    94     4    65    1
    95     5     6    1
    96     7     8    2
    97     9    78    1
    98    15    79    1
    99    18    80    1
   100    18    81    1
   101    19    82    1
   102    19    83    1
   103    20    23    1
   104    21    84    1
   105    21    85    1
   106    22    86    1
   107    22    87    1
   108    27    45    1
   109    28    34    1
   110    32    58    1
   111    33    46    2
   112    36    51    1
   113    36    66    1
   114    37    52    1
   115    37    67    1
   116    38    53    1
   117    38    68    1
   118    42    48    1
   119    42    72    1
   120    43    44    2
   121    60    73    1
   122    61    74    1
   123    39    69    1
   124    39    57    1
   125    40    70    1
   126    40    50    1
   127    41    71    1
   128    41    49    1
