@<TRIPOS>MOLECULE
*****
 123 128 0 0 0
SMALL
GASTEIGER

@<TRIPOS>ATOM
     1 C         2.524895   -4.571951   0.942357 C.3        1 UNL1     0.0009
     2 C         2.913058   -5.862234   2.215752 C.2        1 UNL1     -0.0787
     3 C         3.753696   -6.359284   3.284544 C.2        1 UNL1     -0.0649
     4 C         3.496705   -7.714771   4.265853 C.2        1 UNL1     -0.0542
     5 C         3.832904   -8.341724   5.490998 C.2        1 UNL1     0.0115
     6 C         4.79778   -8.287059   6.707282 C.3        1 UNL1     -0.0348
     7 C         2.879451   -9.502616   6.0569 C.2        1 UNL1     0.2441
     8 O         3.152921   -10.691537   5.966307 O.2        1 UNL1     -0.2702
     9 N         1.840348   -9.056535   6.892022 N.am        1 UNL1     -0.2772
     10 C         0.730171   -8.733082   6.146228 C.2        1 UNL1     0.1049
     11 C         0.723611   -7.528618   5.604523 C.2        1 UNL1     0.0801
     12 C         -0.764   -9.597545   4.335845 C.ar        1 UNL1     0.0753
     13 C         -0.568749   -8.339461   3.681849 C.ar        1 UNL1     0.0305
     14 C         0.075378   -7.216609   4.359605 C.2        1 UNL1     0.0924
     15 N         1.5293   -6.476355   5.828435 N.pl3        1 UNL1     -0.3170
     16 C         0.992033   -5.350995   5.110686 C.3        1 UNL1     0.1275
     17 N         0.249252   -5.963721   3.948547 N.2        1 UNL1     -0.2557
     18 C         -0.068723   -4.711258   6.001323 C.3        1 UNL1     0.0016
     19 C         0.565952   -4.358891   7.337217 C.3        1 UNL1     0.0026
     20 N         1.673925   -3.443482   7.101739 N.3        1 UNL1     -0.3018
     21 C         2.716808   -3.947138   6.205584 C.3        1 UNL1     0.0026
     22 C         2.057934   -4.290464   4.868457 C.3        1 UNL1     0.0016
     23 C         2.153876   -2.81478   8.316245 C.3        1 UNL1     0.0012
     24 C         1.014007   -2.675959   9.337608 C.3        1 UNL1     -0.0339
     25 C         1.098572   -3.759302   10.425392 C.3        1 UNL1     -0.0615
     26 C         1.018872   -1.280414   9.936952 C.3        1 UNL1     -0.0615
     27 C         -1.484905   -10.62273   3.728052 C.ar        1 UNL1     0.1347
     28 C         -2.089111   -10.494021   2.490143 C.ar        1 UNL1     0.0342
     29 C         -1.842271   -9.264107   1.843966 C.ar        1 UNL1     0.1435
     30 C         -1.091749   -8.241275   2.425129 C.ar        1 UNL1     0.0774
     31 O         -2.451668   -8.943942   0.681582 O.3        1 UNL1     -0.4436
     32 C         -2.342389   -7.515071   0.596377 C.3        1 UNL1     0.3143
     33 C         -1.156866   -7.155695   1.469073 C.2        1 UNL1     0.2504
     34 C         -3.080936   -11.450817   1.889371 C.3        1 UNL1     -0.0327
     35 O         -1.979652   -7.195276   -0.752476 O.2        1 UNL1     -0.4528
     36 C         -3.477063   -3.777866   -1.450442 C.3        1 UNL1     0.0854
     37 C         -3.256586   -2.417847   -0.682809 C.3        1 UNL1     0.0236
     38 C         -2.763189   -1.197239   -1.598461 C.3        1 UNL1     0.1131
     39 C         -1.519138   -1.387488   -2.5568 C.3        1 UNL1     0.0200
     40 C         -0.151808   -2.17756   -2.019554 C.3        1 UNL1     0.0661
     41 C         0.67594   -1.859541   -0.573419 C.3        1 UNL1     0.0091
     42 C         1.609565   -2.983967   0.535371 C.3        1 UNL1     0.0661
     43 C         -0.249648   -9.743429   5.720192 C.2        1 UNL1     0.2131
     44 O         -0.668906   -10.569572   6.510413 O.2        1 UNL1     -0.2851
     45 O         -1.589676   -11.831587   4.41298 O.3        1 UNL1     -0.5056
     46 O         -0.418675   -6.200081   1.381152 O.2        1 UNL1     -0.2836
     47 C         3.499264   -4.690932   -0.26032 C.3        1 UNL1     -0.0566
     48 O         2.783024   -2.084227   0.647516 O.3        1 UNL1     -0.3909
     49 C         -0.196967   -0.994814   0.308495 C.3        1 UNL1     -0.0577
     50 O         -0.271396   -3.572821   -2.211041 O.3        1 UNL1     -0.3910
     51 O         -3.052   -3.802644   -2.794368 O.3        1 UNL1     -0.3753
     52 C         -2.706249   -2.648133   0.762545 C.3        1 UNL1     -0.0564
     53 O         -2.897636   0.142847   -0.93633 O.3        1 UNL1     -0.4608
     54 C         -4.018405   0.605273   -0.297606 C.2        1 UNL1     0.3042
     55 O         -4.205695   1.73166   0.160665 O.2        1 UNL1     -0.2512
     56 C         -5.129836   -0.402961   -0.227605 C.3        1 UNL1     0.0332
     57 C         -2.080018   -1.769496   -4.00513 C.3        1 UNL1     -0.0567
     58 C         -3.626503   -6.939173   1.237409 C.3        1 UNL1     0.0210
     59 C         -2.427405   -5.018639   -3.203152 C.3        1 UNL1     0.0372
     60 C         -2.886871   -4.974758   -0.79144 C.2        1 UNL1     -0.0208
     61 C         -2.179041   -5.982542   -1.30339 C.2        1 UNL1     0.0882
     62 H         1.624305   -5.136616   0.672534 H        1 UNL1     0.0365
     63 H         2.138602   -6.601114   1.999549 H        1 UNL1     0.0576
     64 H         4.590817   -5.775088   3.673198 H        1 UNL1     0.0615
     65 H         2.703652   -8.263165   3.750282 H        1 UNL1     0.0622
     66 H         -4.565361   -3.930788   -1.434041 H        1 UNL1     0.0645
     67 H         -4.276927   -2.092765   -0.414883 H        1 UNL1     0.0362
     68 H         -3.63377   -1.104038   -2.265488 H        1 UNL1     0.0741
     69 H         -1.13781   -0.412567   -2.829794 H        1 UNL1     0.0359
     70 H         0.57163   -1.853363   -2.791949 H        1 UNL1     0.0600
     71 H         1.418771   -1.121311   -0.934219 H        1 UNL1     0.0348
     72 H         1.539633   -3.50156   -0.43237 H        1 UNL1     0.0602
     73 H         -3.215983   -5.016024   0.217139 H        1 UNL1     0.0628
     74 H         -1.755577   -5.990695   -2.308303 H        1 UNL1     0.1022
     75 H         4.34499   -7.697608   7.540686 H        1 UNL1     0.0279
     76 H         5.026235   -9.235475   7.188308 H        1 UNL1     0.0279
     77 H         5.709093   -7.706688   6.501422 H        1 UNL1     0.0279
     78 H         2.134323   -8.215534   7.384336 H        1 UNL1     0.1553
     79 H         2.100405   -6.376489   6.647458 H        1 UNL1     0.1484
     80 H         -0.467025   -3.820935   5.499878 H        1 UNL1     0.0317
     81 H         -0.914456   -5.390654   6.152345 H        1 UNL1     0.0317
     82 H         0.901821   -5.256119   7.877668 H        1 UNL1     0.0428
     83 H         -0.208136   -3.905803   7.957337 H        1 UNL1     0.0428
     84 H         3.495987   -3.21173   5.982274 H        1 UNL1     0.0428
     85 H         3.264708   -4.790068   6.64897 H        1 UNL1     0.0428
     86 H         2.865078   -4.527222   4.200285 H        1 UNL1     0.0317
     87 H         1.617698   -3.388891   4.425225 H        1 UNL1     0.0317
     88 H         2.93355   -3.456079   8.747683 H        1 UNL1     0.0429
     89 H         2.617403   -1.842394   8.105571 H        1 UNL1     0.0429
     90 H         0.053042   -2.775938   8.819185 H        1 UNL1     0.0308
     91 H         1.777848   -3.462667   11.230186 H        1 UNL1     0.0233
     92 H         0.110945   -3.962136   10.846178 H        1 UNL1     0.0233
     93 H         1.466759   -4.71564   10.034633 H        1 UNL1     0.0233
     94 H         1.303962   -0.544234   9.177612 H        1 UNL1     0.0233
     95 H         0.018029   -1.024369   10.295723 H        1 UNL1     0.0233
     96 H         1.722392   -1.206764   10.77098 H        1 UNL1     0.0233
     97 H         -3.962076   -10.9406   1.511878 H        1 UNL1     0.0280
     98 H         -2.662099   -11.99898   1.035352 H        1 UNL1     0.0280
     99 H         -3.40294   -12.176845   2.653761 H        1 UNL1     0.0280
     100 H         -1.203005   -11.830261   5.270946 H        1 UNL1     0.2922
     101 H         4.502484   -4.917182   0.100259 H        1 UNL1     0.0236
     102 H         3.485882   -3.817121   -0.910903 H        1 UNL1     0.0236
     103 H         3.24167   -5.536358   -0.919936 H        1 UNL1     0.0236
     104 H         2.852511   -1.584408   -0.189338 H        1 UNL1     0.2098
     105 H         -1.263653   -1.17263   0.197254 H        1 UNL1     0.0234
     106 H         0.078267   -0.996072   1.363091 H        1 UNL1     0.0234
     107 H         0.0   0.0   0.0 H        1 UNL1     0.0234
     108 H         -0.897633   -3.711958   -2.947408 H        1 UNL1     0.2098
     109 H         -2.410909   -3.692739   0.933671 H        1 UNL1     0.0234
     110 H         -1.871973   -1.98524   1.016118 H        1 UNL1     0.0234
     111 H         -3.464696   -2.425008   1.524727 H        1 UNL1     0.0234
     112 H         -5.760087   -0.324569   -1.118662 H        1 UNL1     0.0342
     113 H         -4.754998   -1.417661   -0.102206 H        1 UNL1     0.0342
     114 H         -5.752072   -0.167531   0.646786 H        1 UNL1     0.0342
     115 H         -3.177778   -1.813121   -4.019514 H        1 UNL1     0.0234
     116 H         -1.768196   -1.085155   -4.796643 H        1 UNL1     0.0234
     117 H         -1.821848   -2.795115   -4.320402 H        1 UNL1     0.0234
     118 H         -3.426866   -6.47165   2.217497 H        1 UNL1     0.0309
     119 H         -4.141253   -6.217914   0.594743 H        1 UNL1     0.0309
     120 H         -4.363076   -7.715083   1.473056 H        1 UNL1     0.0309
     121 H         -3.146303   -5.824193   -3.056097 H        1 UNL1     0.0524
     122 H         -2.15291   -5.009524   -4.271144 H        1 UNL1     0.0524
     123 H         -1.534785   -5.200152   -2.611227 H        1 UNL1     0.0524
@<TRIPOS>BOND
     1     1     2    1
     2     1    42    1
     3     2     3    2
     4     3     4    1
     5     4     5    2
     6     5     7    1
     7     6    75    1
     8     6    76    1
     9     6    77    1
    10     7     9   am
    11     9    10    1
    12    10    11    2
    13    10    43    1
    14    11    14    1
    15    11    15    1
    16    12    13   ar
    17    12    27   ar
    18    12    43    1
    19    13    14    1
    20    13    30   ar
    21    14    17    2
    22    15    16    1
    23    16    17    1
    24    16    18    1
    25    16    22    1
    26    18    19    1
    27    19    20    1
    28    20    21    1
    29    21    22    1
    30    23    24    1
    31    23    88    1
    32    23    89    1
    33    24    25    1
    34    24    26    1
    35    24    90    1
    36    25    91    1
    37    25    92    1
    38    25    93    1
    39    26    94    1
    40    26    95    1
    41    26    96    1
    42    27    28   ar
    43    28    29   ar
    44    29    30   ar
    45    29    31    1
    46    30    33    1
    47    31    32    1
    48    32    33    1
    49    32    35    1
    50    34    97    1
    51    34    98    1
    52    34    99    1
    53    35    61    1
    54    36    37    1
    55    36    60    1
    56    37    38    1
    57    38    39    1
    58    39    40    1
    59    40    41    1
    60    41    42    1
    61    45   100    1
    62    47   101    1
    63    47   102    1
    64    47   103    1
    65    48   104    1
    66    49   105    1
    67    49   106    1
    68    49   107    1
    69    50   108    1
    70    51    59    1
    71    52   109    1
    72    52   110    1
    73    52   111    1
    74    53    54    1
    75    54    55    2
    76    54    56    1
    77    56   112    1
    78    56   113    1
    79    56   114    1
    80    57   115    1
    81    57   116    1
    82    57   117    1
    83    58   118    1
    84    58   119    1
    85    58   120    1
    86    59   121    1
    87    59   122    1
    88    59   123    1
    89    60    61    2
    90     1    47    1
    91     1    62    1
    92     2    63    1
    93     3    64    1
    94     4    65    1
    95     5     6    1
    96     7     8    2
    97     9    78    1
    98    15    79    1
    99    18    80    1
   100    18    81    1
   101    19    82    1
   102    19    83    1
   103    20    23    1
   104    21    84    1
   105    21    85    1
   106    22    86    1
   107    22    87    1
   108    27    45    1
   109    28    34    1
   110    32    58    1
   111    33    46    2
   112    36    51    1
   113    36    66    1
   114    37    52    1
   115    37    67    1
   116    38    53    1
   117    38    68    1
   118    42    48    1
   119    42    72    1
   120    43    44    2
   121    60    73    1
   122    61    74    1
   123    39    69    1
   124    39    57    1
   125    40    70    1
   126    40    50    1
   127    41    71    1
   128    41    49    1
