@<TRIPOS>MOLECULE
*****
 123 128 0 0 0
SMALL
GASTEIGER

@<TRIPOS>ATOM
     1 C         -0.29003   1.970397   3.754758 C.3        1 UNL1     0.0009
     2 C         -1.789012   2.140492   4.832328 C.2        1 UNL1     -0.0787
     3 C         -2.86555   2.946445   5.368566 C.2        1 UNL1     -0.0649
     4 C         -4.153715   2.444744   6.345954 C.2        1 UNL1     -0.0542
     5 C         -5.456412   2.762433   6.803263 C.2        1 UNL1     0.0115
     6 C         -6.536648   3.878122   6.843892 C.3        1 UNL1     -0.0348
     7 C         -6.358469   1.601072   7.447097 C.2        1 UNL1     0.2441
     8 O         -6.522843   1.477495   8.653014 O.2        1 UNL1     -0.2702
     9 N         -7.155452   0.896515   6.528091 N.am        1 UNL1     -0.2772
     10 C         -6.455905   -0.164239   6.000118 C.2        1 UNL1     0.1049
     11 C         -5.651905   0.113793   4.989918 C.2        1 UNL1     0.0801
     12 C         -5.035108   -2.120163   6.642792 C.ar        1 UNL1     0.0753
     13 C         -4.092067   -1.654206   5.672139 C.ar        1 UNL1     0.0305
     14 C         -4.43078   -0.596633   4.722473 C.2        1 UNL1     0.0924
     15 N         -5.553159   1.228926   4.246106 N.pl3        1 UNL1     -0.3170
     16 C         -4.643868   0.956733   3.164738 C.3        1 UNL1     0.1275
     17 N         -3.726148   -0.113633   3.703096 N.2        1 UNL1     -0.2557
     18 C         -5.451536   0.300271   2.049197 C.3        1 UNL1     0.0016
     19 C         -6.6076   1.216818   1.68171 C.3        1 UNL1     0.0026
     20 N         -6.068998   2.500258   1.253087 N.3        1 UNL1     -0.3018
     21 C         -5.225943   3.18093   2.238131 C.3        1 UNL1     0.0026
     22 C         -4.06872   2.244267   2.589405 C.3        1 UNL1     0.0016
     23 C         -7.056931   3.337319   0.601964 C.3        1 UNL1     0.0012
     24 C         -7.427101   2.762443   -0.774353 C.3        1 UNL1     -0.0339
     25 C         -7.735517   3.878799   -1.785632 C.3        1 UNL1     -0.0615
     26 C         -6.321032   1.8479   -1.271345 C.3        1 UNL1     -0.0615
     27 C         -4.748245   -3.208575   7.463272 C.ar        1 UNL1     0.1347
     28 C         -3.572617   -3.932964   7.37837 C.ar        1 UNL1     0.0342
     29 C         -2.639141   -3.42603   6.449497 C.ar        1 UNL1     0.1435
     30 C         -2.898142   -2.314799   5.646189 C.ar        1 UNL1     0.0774
     31 O         -1.492638   -4.08437   6.171784 O.3        1 UNL1     -0.4436
     32 C         -1.06844   -3.555936   4.906207 C.3        1 UNL1     0.3143
     33 C         -1.725589   -2.194262   4.805144 C.2        1 UNL1     0.2504
     34 C         -3.300577   -5.253372   8.043666 C.3        1 UNL1     -0.0327
     35 O         0.344408   -3.332135   4.990023 O.2        1 UNL1     -0.4528
     36 C         1.682374   -3.796897   1.468386 C.3        1 UNL1     0.0854
     37 C         1.274317   -3.049486   0.140836 C.3        1 UNL1     0.0236
     38 C         2.488412   -2.357042   -0.645446 C.3        1 UNL1     0.1131
     39 C         3.482283   -1.401162   0.129658 C.3        1 UNL1     0.0200
     40 C         2.899012   -0.275913   1.214115 C.3        1 UNL1     0.0661
     41 C         1.645229   0.82875   0.921952 C.3        1 UNL1     0.0091
     42 C         0.392376   1.535336   2.06059 C.3        1 UNL1     0.0661
     43 C         -6.364502   -1.462025   6.685502 C.2        1 UNL1     0.2131
     44 O         -7.358897   -1.983569   7.156573 O.2        1 UNL1     -0.2851
     45 O         -5.701821   -3.569587   8.412905 O.3        1 UNL1     -0.5056
     46 O         -1.353214   -1.221845   4.187411 O.2        1 UNL1     -0.2836
     47 C         0.933264   2.656292   4.420402 C.3        1 UNL1     -0.0566
     48 O         0.596404   2.930758   1.602021 O.3        1 UNL1     -0.3909
     49 C         0.914872   0.416321   -0.336609 C.3        1 UNL1     -0.0577
     50 O         2.749722   -0.847752   2.498029 O.3        1 UNL1     -0.3910
     51 O         3.015885   -3.619827   1.89008 O.3        1 UNL1     -0.3753
     52 C         -0.130604   -2.373835   0.261834 C.3        1 UNL1     -0.0564
     53 O         2.146584   -1.96552   -2.053348 O.3        1 UNL1     -0.4608
     54 C         3.041136   -1.537198   -2.998995 C.2        1 UNL1     0.3042
     55 O         3.303106   -2.071922   -4.075694 O.2        1 UNL1     -0.2512
     56 C         3.705427   -0.235171   -2.65236 C.3        1 UNL1     0.0332
     57 C         4.746879   -2.275508   0.570668 C.3        1 UNL1     -0.0567
     58 C         -1.668887   -4.481322   3.822393 C.3        1 UNL1     0.0210
     59 C         3.34478   -4.259412   3.122405 C.3        1 UNL1     0.0372
     60 C         0.818037   -3.506414   2.644694 C.2        1 UNL1     -0.0208
     61 C         1.142228   -3.233918   3.909364 C.2        1 UNL1     0.0882
     62 H         -0.239382   0.9089   4.025631 H        1 UNL1     0.0365
     63 H         -1.819649   1.152276   5.295968 H        1 UNL1     0.0576
     64 H         -3.032364   3.973336   5.035736 H        1 UNL1     0.0615
     65 H         -3.851758   1.449989   6.684728 H        1 UNL1     0.0622
     66 H         1.534887   -4.862249   1.241848 H        1 UNL1     0.0645
     67 H         1.000269   -3.864002   -0.552 H        1 UNL1     0.0362
     68 H         3.079312   -3.251308   -0.895745 H        1 UNL1     0.0741
     69 H         4.006907   -0.787056   -0.5901 H        1 UNL1     0.0359
     70 H         3.786357   0.379432   1.304676 H        1 UNL1     0.0600
     71 H         2.231816   1.695193   0.558429 H        1 UNL1     0.0348
     72 H         1.2033   1.156391   2.699432 H        1 UNL1     0.0602
     73 H         -0.197527   -3.6672   2.380072 H        1 UNL1     0.0628
     74 H         2.151087   -2.999237   4.250489 H        1 UNL1     0.1022
     75 H         -6.083125   4.851975   7.148785 H        1 UNL1     0.0279
     76 H         -7.01259   4.127247   5.898119 H        1 UNL1     0.0279
     77 H         -7.27706   3.724295   7.642534 H        1 UNL1     0.0279
     78 H         -7.410945   1.509382   5.756602 H        1 UNL1     0.1553
     79 H         -6.272858   1.925847   4.188948 H        1 UNL1     0.1484
     80 H         -4.794108   0.120601   1.189969 H        1 UNL1     0.0317
     81 H         -5.830342   -0.678022   2.363999 H        1 UNL1     0.0317
     82 H         -7.309925   1.342009   2.518956 H        1 UNL1     0.0428
     83 H         -7.171307   0.728781   0.886032 H        1 UNL1     0.0428
     84 H         -4.769978   4.102503   1.86315 H        1 UNL1     0.0428
     85 H         -5.802916   3.506268   3.114815 H        1 UNL1     0.0428
     86 H         -3.405285   2.822197   3.205715 H        1 UNL1     0.0317
     87 H         -3.468766   2.037991   1.694642 H        1 UNL1     0.0317
     88 H         -7.958356   3.352119   1.228469 H        1 UNL1     0.0429
     89 H         -6.707297   4.374288   0.51695 H        1 UNL1     0.0429
     90 H         -8.316095   2.128909   -0.671697 H        1 UNL1     0.0308
     91 H         -6.980823   4.670034   -1.747052 H        1 UNL1     0.0233
     92 H         -7.783322   3.477973   -2.800847 H        1 UNL1     0.0233
     93 H         -8.705626   4.355104   -1.598932 H        1 UNL1     0.0233
     94 H         -6.374236   1.748389   -2.360888 H        1 UNL1     0.0233
     95 H         -5.344705   2.27091   -1.018739 H        1 UNL1     0.0233
     96 H         -6.398826   0.850755   -0.829058 H        1 UNL1     0.0233
     97 H         -3.048495   -5.136416   9.093431 H        1 UNL1     0.0280
     98 H         -4.173861   -5.918126   8.016551 H        1 UNL1     0.0280
     99 H         -2.457691   -5.75389   7.539563 H        1 UNL1     0.0280
     100 H         -6.352847   -4.17467   8.103612 H        1 UNL1     0.2922
     101 H         1.599586   1.899254   4.833396 H        1 UNL1     0.0236
     102 H         0.654396   3.404151   5.16197 H        1 UNL1     0.0236
     103 H         1.550613   3.203113   3.688242 H        1 UNL1     0.0236
     104 H         0.121572   3.517581   2.222621 H        1 UNL1     0.2098
     105 H         0.67932   1.237625   -1.00876 H        1 UNL1     0.0234
     106 H         1.381685   -0.400356   -0.887111 H        1 UNL1     0.0234
     107 H         0.0   -0.0   0.0 H        1 UNL1     0.0234
     108 H         3.301448   -1.653204   2.522802 H        1 UNL1     0.2098
     109 H         -0.190849   -1.434771   -0.305829 H        1 UNL1     0.0234
     110 H         -0.952744   -3.034305   -0.034152 H        1 UNL1     0.0234
     111 H         -0.363721   -2.108129   1.301547 H        1 UNL1     0.0234
     112 H         4.386433   0.060744   -3.456109 H        1 UNL1     0.0342
     113 H         2.981522   0.551276   -2.444258 H        1 UNL1     0.0342
     114 H         4.303253   -0.386417   -1.743023 H        1 UNL1     0.0342
     115 H         5.572832   -1.646548   0.93039 H        1 UNL1     0.0234
     116 H         4.529525   -3.00913   1.349516 H        1 UNL1     0.0234
     117 H         5.231052   -2.803416   -0.268875 H        1 UNL1     0.0234
     118 H         -0.966269   -5.278251   3.521995 H        1 UNL1     0.0309
     119 H         -2.618292   -4.935573   4.123205 H        1 UNL1     0.0309
     120 H         -1.869136   -3.953979   2.883289 H        1 UNL1     0.0309
     121 H         2.990475   -3.620061   3.930523 H        1 UNL1     0.0524
     122 H         2.848349   -5.238042   3.231385 H        1 UNL1     0.0524
     123 H         4.419437   -4.398793   3.198423 H        1 UNL1     0.0524
@<TRIPOS>BOND
     1     1     2    1
     2     1    42    1
     3     2     3    2
     4     3     4    1
     5     4     5    2
     6     5     7    1
     7     6    75    1
     8     6    76    1
     9     6    77    1
    10     7     9   am
    11     9    10    1
    12    10    11    2
    13    10    43    1
    14    11    14    1
    15    11    15    1
    16    12    13   ar
    17    12    27   ar
    18    12    43    1
    19    13    14    1
    20    13    30   ar
    21    14    17    2
    22    15    16    1
    23    16    17    1
    24    16    18    1
    25    16    22    1
    26    18    19    1
    27    19    20    1
    28    20    21    1
    29    21    22    1
    30    23    24    1
    31    23    88    1
    32    23    89    1
    33    24    25    1
    34    24    26    1
    35    24    90    1
    36    25    91    1
    37    25    92    1
    38    25    93    1
    39    26    94    1
    40    26    95    1
    41    26    96    1
    42    27    28   ar
    43    28    29   ar
    44    29    30   ar
    45    29    31    1
    46    30    33    1
    47    31    32    1
    48    32    33    1
    49    32    35    1
    50    34    97    1
    51    34    98    1
    52    34    99    1
    53    35    61    1
    54    36    37    1
    55    36    60    1
    56    37    38    1
    57    38    39    1
    58    39    40    1
    59    40    41    1
    60    41    42    1
    61    45   100    1
    62    47   101    1
    63    47   102    1
    64    47   103    1
    65    48   104    1
    66    49   105    1
    67    49   106    1
    68    49   107    1
    69    50   108    1
    70    51    59    1
    71    52   109    1
    72    52   110    1
    73    52   111    1
    74    53    54    1
    75    54    55    2
    76    54    56    1
    77    56   112    1
    78    56   113    1
    79    56   114    1
    80    57   115    1
    81    57   116    1
    82    57   117    1
    83    58   118    1
    84    58   119    1
    85    58   120    1
    86    59   121    1
    87    59   122    1
    88    59   123    1
    89    60    61    2
    90     1    47    1
    91     1    62    1
    92     2    63    1
    93     3    64    1
    94     4    65    1
    95     5     6    1
    96     7     8    2
    97     9    78    1
    98    15    79    1
    99    18    80    1
   100    18    81    1
   101    19    82    1
   102    19    83    1
   103    20    23    1
   104    21    84    1
   105    21    85    1
   106    22    86    1
   107    22    87    1
   108    27    45    1
   109    28    34    1
   110    32    58    1
   111    33    46    2
   112    36    51    1
   113    36    66    1
   114    37    52    1
   115    37    67    1
   116    38    53    1
   117    38    68    1
   118    42    48    1
   119    42    72    1
   120    43    44    2
   121    60    73    1
   122    61    74    1
   123    39    69    1
   124    39    57    1
   125    40    70    1
   126    40    50    1
   127    41    71    1
   128    41    49    1
