@<TRIPOS>MOLECULE
*****
 123 128 0 0 0
SMALL
GASTEIGER

@<TRIPOS>ATOM
     1 C         5.165724   1.761347   0.460673 C.3        1 UNL1     0.0009
     2 C         6.595182   2.571484   -0.398028 C.2        1 UNL1     -0.0787
     3 C         7.873205   2.476843   -1.071635 C.2        1 UNL1     -0.0649
     4 C         8.742951   3.714553   -1.83188 C.2        1 UNL1     -0.0542
     5 C         9.756489   4.010241   -2.776542 C.2        1 UNL1     0.0115
     6 C         10.88092   3.388071   -3.649401 C.3        1 UNL1     -0.0348
     7 C         9.844439   5.49406   -3.382789 C.2        1 UNL1     0.2441
     8 O         10.668577   6.317544   -3.0097 O.2        1 UNL1     -0.2702
     9 N         9.086562   5.699801   -4.548741 N.am        1 UNL1     -0.2772
     10 C         7.804835   6.083125   -4.226934 C.2        1 UNL1     0.1049
     11 C         6.963261   5.109456   -3.930378 C.2        1 UNL1     0.0801
     12 C         6.511114   7.68578   -2.807385 C.ar        1 UNL1     0.0753
     13 C         5.757606   6.55574   -2.355894 C.ar        1 UNL1     0.0305
     14 C         5.873825   5.250685   -3.002713 C.2        1 UNL1     0.0924
     15 N         7.088201   3.780874   -4.090956 N.pl3        1 UNL1     -0.3170
     16 C         5.821776   3.178382   -3.769357 C.3        1 UNL1     0.1275
     17 N         5.189014   4.131501   -2.78503 N.2        1 UNL1     -0.2557
     18 C         4.961072   3.236022   -5.027756 C.3        1 UNL1     0.0016
     19 C         5.71073   2.55442   -6.161344 C.3        1 UNL1     0.0026
     20 N         5.986643   1.176783   -5.777914 N.3        1 UNL1     -0.3018
     21 C         6.75796   1.017611   -4.543368 C.3        1 UNL1     0.0026
     22 C         5.984375   1.705586   -3.417246 C.3        1 UNL1     0.0016
     23 C         6.426385   0.358955   -6.89076 C.3        1 UNL1     0.0012
     24 C         5.265578   0.107145   -7.865888 C.3        1 UNL1     -0.0339
     25 C         5.331449   1.054399   -9.075196 C.3        1 UNL1     -0.0615
     26 C         5.253871   -1.349263   -8.296607 C.3        1 UNL1     -0.0615
     27 C         6.306616   8.952669   -2.265821 C.ar        1 UNL1     0.1347
     28 C         5.352782   9.219314   -1.299824 C.ar        1 UNL1     0.0342
     29 C         4.656864   8.082877   -0.835742 C.ar        1 UNL1     0.1435
     30 C         4.876389   6.801672   -1.34323 C.ar        1 UNL1     0.0774
     31 O         3.620835   8.193397   0.024162 O.3        1 UNL1     -0.4436
     32 C         2.901359   6.958866   -0.114267 C.3        1 UNL1     0.3143
     33 C         3.91384   5.968567   -0.653156 C.2        1 UNL1     0.2504
     34 C         4.905263   10.584067   -0.855664 C.3        1 UNL1     -0.0327
     35 O         2.549868   6.520562   1.203912 O.2        1 UNL1     -0.4528
     36 C         -0.690746   4.580546   0.825962 C.3        1 UNL1     0.0854
     37 C         -0.998413   3.31969   -0.0702 C.3        1 UNL1     0.0236
     38 C         -1.591005   2.056736   0.720701 C.3        1 UNL1     0.1131
     39 C         -0.855979   1.526907   2.017346 C.3        1 UNL1     0.0200
     40 C         0.80579   1.385464   2.048264 C.3        1 UNL1     0.0661
     41 C         1.759887   0.619643   0.873178 C.3        1 UNL1     0.0091
     42 C         3.463085   0.98674   0.29893 C.3        1 UNL1     0.0661
     43 C         7.454787   7.481036   -3.934249 C.2        1 UNL1     0.2131
     44 O         7.848035   8.380488   -4.654722 O.2        1 UNL1     -0.2851
     45 O         7.113492   9.990034   -2.728707 O.3        1 UNL1     -0.5056
     46 O         3.933613   4.765006   -0.523139 O.2        1 UNL1     -0.2836
     47 C         5.571951   1.33209   1.896187 C.3        1 UNL1     -0.0566
     48 O         3.915636   -0.423292   0.377195 O.3        1 UNL1     -0.3909
     49 C         0.918699   0.385643   -0.361788 C.3        1 UNL1     -0.0577
     50 O         1.405363   2.604603   2.438052 O.3        1 UNL1     -0.3910
     51 O         -0.805838   4.389826   2.218015 O.3        1 UNL1     -0.3753
     52 C         0.039357   3.162422   -1.229187 C.3        1 UNL1     -0.0564
     53 O         -2.196534   1.016738   -0.175995 O.3        1 UNL1     -0.4608
     54 C         -2.42562   -0.290771   0.164401 C.2        1 UNL1     0.3042
     55 O         -1.855716   -1.288151   -0.276372 O.2        1 UNL1     -0.2512
     56 C         -3.460154   -0.459679   1.24047 C.3        1 UNL1     0.0332
     57 C         -1.570921   2.193443   3.283348 C.3        1 UNL1     -0.0567
     58 C         1.818938   7.201862   -1.191692 C.3        1 UNL1     0.0210
     59 C         -1.117414   5.56766   2.960641 C.3        1 UNL1     0.0372
     60 C         0.63525   5.213045   0.58755 C.2        1 UNL1     -0.0208
     61 C         1.552416   5.650082   1.451581 C.2        1 UNL1     0.0882
     62 H         4.687912   2.744291   0.551388 H        1 UNL1     0.0365
     63 H         6.326976   3.624565   -0.290523 H        1 UNL1     0.0576
     64 H         8.331888   1.511247   -1.296006 H        1 UNL1     0.0615
     65 H         8.255738   4.628557   -1.481588 H        1 UNL1     0.0622
     66 H         -1.439129   5.325388   0.520712 H        1 UNL1     0.0645
     67 H         -1.868455   3.62723   -0.67601 H        1 UNL1     0.0362
     68 H         -2.53698   2.491079   1.078473 H        1 UNL1     0.0741
     69 H         -1.183794   0.514888   2.214231 H        1 UNL1     0.0359
     70 H         0.9246   0.724951   2.928416 H        1 UNL1     0.0600
     71 H         1.808614   -0.401634   1.299294 H        1 UNL1     0.0348
     72 H         3.362004   1.474168   1.279497 H        1 UNL1     0.0602
     73 H         0.746299   5.411128   -0.4496 H        1 UNL1     0.0628
     74 H         1.541952   5.438816   2.521392 H        1 UNL1     0.1022
     75 H         10.910337   2.279401   -3.518948 H        1 UNL1     0.0279
     76 H         10.773856   3.494441   -4.72657 H        1 UNL1     0.0279
     77 H         11.888173   3.672897   -3.311738 H        1 UNL1     0.0279
     78 H         9.023497   4.829975   -5.073625 H        1 UNL1     0.1553
     79 H         7.750729   3.354854   -4.712645 H        1 UNL1     0.1484
     80 H         4.002217   2.742607   -4.827994 H        1 UNL1     0.0317
     81 H         4.730241   4.272352   -5.296809 H        1 UNL1     0.0317
     82 H         6.638537   3.088155   -6.414748 H        1 UNL1     0.0428
     83 H         5.079986   2.608478   -7.0492 H        1 UNL1     0.0428
     84 H         6.882754   -0.0252   -4.235501 H        1 UNL1     0.0428
     85 H         7.786482   1.388249   -4.653304 H        1 UNL1     0.0428
     86 H         6.506976   1.456032   -2.512482 H        1 UNL1     0.0317
     87 H         5.006901   1.22546   -3.286407 H        1 UNL1     0.0317
     88 H         7.217856   0.902996   -7.422632 H        1 UNL1     0.0429
     89 H         6.863464   -0.585925   -6.542998 H        1 UNL1     0.0429
     90 H         4.315659   0.272772   -7.343935 H        1 UNL1     0.0308
     91 H         5.75204   2.025477   -8.797322 H        1 UNL1     0.0233
     92 H         5.934204   0.618179   -9.875201 H        1 UNL1     0.0233
     93 H         4.342639   1.248162   -9.508262 H        1 UNL1     0.0233
     94 H         4.557012   -1.491156   -9.129727 H        1 UNL1     0.0233
     95 H         6.250062   -1.646541   -8.636003 H        1 UNL1     0.0233
     96 H         4.949988   -2.00556   -7.476303 H        1 UNL1     0.0233
     97 H         4.110268   10.532061   -0.117756 H        1 UNL1     0.0280
     98 H         5.717099   11.152387   -0.383234 H        1 UNL1     0.0280
     99 H         4.533649   11.151522   -1.724568 H        1 UNL1     0.0280
     100 H         6.642653   10.740174   -3.046862 H        1 UNL1     0.2922
     101 H         4.710185   0.907459   2.41068 H        1 UNL1     0.0236
     102 H         6.035358   2.134901   2.468665 H        1 UNL1     0.0236
     103 H         6.321008   0.522727   1.89005 H        1 UNL1     0.0236
     104 H         4.33547   -0.550279   1.250456 H        1 UNL1     0.2098
     105 H         0.700313   1.284239   -0.933317 H        1 UNL1     0.0234
     106 H         1.286005   -0.401123   -1.020585 H        1 UNL1     0.0234
     107 H         0.0   -0.0   0.0 H        1 UNL1     0.0234
     108 H         1.215916   3.258094   1.737461 H        1 UNL1     0.2098
     109 H         1.068199   3.063689   -0.855761 H        1 UNL1     0.0234
     110 H         -0.188474   2.327497   -1.900557 H        1 UNL1     0.0234
     111 H         0.045536   4.040373   -1.888815 H        1 UNL1     0.0234
     112 H         -3.5794   -1.520967   1.478785 H        1 UNL1     0.0342
     113 H         -3.220717   0.116644   2.132863 H        1 UNL1     0.0342
     114 H         -4.420443   -0.091324   0.854044 H        1 UNL1     0.0342
     115 H         -2.642271   1.952663   3.321063 H        1 UNL1     0.0234
     116 H         -1.135542   1.904752   4.242072 H        1 UNL1     0.0234
     117 H         -1.601613   3.295823   3.241399 H        1 UNL1     0.0234
     118 H         0.918589   7.684908   -0.773308 H        1 UNL1     0.0309
     119 H         2.181223   7.792491   -2.039106 H        1 UNL1     0.0309
     120 H         1.431176   6.269199   -1.615823 H        1 UNL1     0.0309
     121 H         -0.281753   6.258099   2.849637 H        1 UNL1     0.0524
     122 H         -2.019919   6.075052   2.581069 H        1 UNL1     0.0524
     123 H         -1.264902   5.323114   4.008753 H        1 UNL1     0.0524
@<TRIPOS>BOND
     1     1     2    1
     2     1    42    1
     3     2     3    2
     4     3     4    1
     5     4     5    2
     6     5     7    1
     7     6    75    1
     8     6    76    1
     9     6    77    1
    10     7     9   am
    11     9    10    1
    12    10    11    2
    13    10    43    1
    14    11    14    1
    15    11    15    1
    16    12    13   ar
    17    12    27   ar
    18    12    43    1
    19    13    14    1
    20    13    30   ar
    21    14    17    2
    22    15    16    1
    23    16    17    1
    24    16    18    1
    25    16    22    1
    26    18    19    1
    27    19    20    1
    28    20    21    1
    29    21    22    1
    30    23    24    1
    31    23    88    1
    32    23    89    1
    33    24    25    1
    34    24    26    1
    35    24    90    1
    36    25    91    1
    37    25    92    1
    38    25    93    1
    39    26    94    1
    40    26    95    1
    41    26    96    1
    42    27    28   ar
    43    28    29   ar
    44    29    30   ar
    45    29    31    1
    46    30    33    1
    47    31    32    1
    48    32    33    1
    49    32    35    1
    50    34    97    1
    51    34    98    1
    52    34    99    1
    53    35    61    1
    54    36    37    1
    55    36    60    1
    56    37    38    1
    57    38    39    1
    58    39    40    1
    59    40    41    1
    60    41    42    1
    61    45   100    1
    62    47   101    1
    63    47   102    1
    64    47   103    1
    65    48   104    1
    66    49   105    1
    67    49   106    1
    68    49   107    1
    69    50   108    1
    70    51    59    1
    71    52   109    1
    72    52   110    1
    73    52   111    1
    74    53    54    1
    75    54    55    2
    76    54    56    1
    77    56   112    1
    78    56   113    1
    79    56   114    1
    80    57   115    1
    81    57   116    1
    82    57   117    1
    83    58   118    1
    84    58   119    1
    85    58   120    1
    86    59   121    1
    87    59   122    1
    88    59   123    1
    89    60    61    2
    90     1    47    1
    91     1    62    1
    92     2    63    1
    93     3    64    1
    94     4    65    1
    95     5     6    1
    96     7     8    2
    97     9    78    1
    98    15    79    1
    99    18    80    1
   100    18    81    1
   101    19    82    1
   102    19    83    1
   103    20    23    1
   104    21    84    1
   105    21    85    1
   106    22    86    1
   107    22    87    1
   108    27    45    1
   109    28    34    1
   110    32    58    1
   111    33    46    2
   112    36    51    1
   113    36    66    1
   114    37    52    1
   115    37    67    1
   116    38    53    1
   117    38    68    1
   118    42    48    1
   119    42    72    1
   120    43    44    2
   121    60    73    1
   122    61    74    1
   123    39    69    1
   124    39    57    1
   125    40    70    1
   126    40    50    1
   127    41    71    1
   128    41    49    1
