@<TRIPOS>MOLECULE
*****
 123 128 0 0 0
SMALL
GASTEIGER

@<TRIPOS>ATOM
     1 C         -1.077205   -0.741051   -5.297347 C.3        1 UNL1     0.0009
     2 C         -1.472891   -2.001356   -6.598154 C.2        1 UNL1     -0.0787
     3 C         -1.07711   -2.78525   -7.749204 C.2        1 UNL1     -0.0649
     4 C         -1.953585   -4.006965   -8.527381 C.2        1 UNL1     -0.0542
     5 C         -1.867972   -5.129646   -9.387228 C.2        1 UNL1     0.0115
     6 C         -0.923224   -5.915312   -10.337755 C.3        1 UNL1     -0.0348
     7 C         -3.087434   -6.17289   -9.426489 C.2        1 UNL1     0.2441
     8 O         -3.916255   -6.194141   -10.326006 O.2        1 UNL1     -0.2702
     9 N         -2.99163   -7.226024   -8.500269 N.am        1 UNL1     -0.2772
     10 C         -3.555726   -6.861989   -7.299188 C.2        1 UNL1     0.1049
     11 C         -2.787819   -6.162147   -6.483858 C.2        1 UNL1     0.0801
     12 C         -5.610525   -5.843172   -6.300616 C.ar        1 UNL1     0.0753
     13 C         -4.733789   -4.96152   -5.591651 C.ar        1 UNL1     0.0305
     14 C         -3.289437   -5.180484   -5.560769 C.2        1 UNL1     0.0924
     15 N         -1.467226   -5.917957   -6.538013 N.pl3        1 UNL1     -0.3170
     16 C         -1.093554   -5.250018   -5.319621 C.3        1 UNL1     0.1275
     17 N         -2.346911   -4.531667   -4.882825 N.2        1 UNL1     -0.2557
     18 C         -0.837395   -6.329553   -4.272393 C.3        1 UNL1     0.0016
     19 C         0.212475   -7.289033   -4.809757 C.3        1 UNL1     0.0026
     20 N         1.427525   -6.539502   -5.097653 N.3        1 UNL1     -0.3018
     21 C         1.267851   -5.43825   -6.049555 C.3        1 UNL1     0.0026
     22 C         0.212261   -4.484395   -5.487605 C.3        1 UNL1     0.0016
     23 C         2.575686   -7.393492   -5.32802 C.3        1 UNL1     0.0012
     24 C         3.016212   -8.068324   -4.019474 C.3        1 UNL1     -0.0339
     25 C         4.541728   -8.253277   -3.967968 C.3        1 UNL1     -0.0615
     26 C         2.508756   -7.274988   -2.827884 C.3        1 UNL1     -0.0615
     27 C         -6.993921   -5.698852   -6.226421 C.ar        1 UNL1     0.1347
     28 C         -7.615378   -4.739226   -5.447345 C.ar        1 UNL1     0.0342
     29 C         -6.731747   -3.851866   -4.796997 C.ar        1 UNL1     0.1435
     30 C         -5.343834   -3.961824   -4.89096 C.ar        1 UNL1     0.0774
     31 O         -7.179451   -2.931884   -3.914841 O.3        1 UNL1     -0.4436
     32 C         -6.022613   -2.5771   -3.14236 C.3        1 UNL1     0.3143
     33 C         -4.837971   -2.918689   -4.023355 C.2        1 UNL1     0.2504
     34 C         -9.081821   -4.682625   -5.121093 C.3        1 UNL1     -0.0327
     35 O         -6.032426   -1.152294   -2.990423 O.2        1 UNL1     -0.4528
     36 C         -4.335287   -0.448228   0.331037 C.3        1 UNL1     0.0854
     37 C         -2.891635   -0.855578   0.818335 C.3        1 UNL1     0.0236
     38 C         -1.978208   0.363742   1.318988 C.3        1 UNL1     0.1131
     39 C         -1.807436   1.643631   0.40521 C.3        1 UNL1     0.0200
     40 C         -1.549133   1.482467   -1.234833 C.3        1 UNL1     0.0661
     41 C         -0.390334   0.481332   -1.964576 C.3        1 UNL1     0.0091
     42 C         -0.429081   -0.412521   -3.566115 C.3        1 UNL1     0.0661
     43 C         -5.000117   -6.971814   -7.046155 C.2        1 UNL1     0.2131
     44 O         -5.605486   -7.983912   -7.349346 O.2        1 UNL1     -0.2851
     45 O         -7.7749   -6.569946   -6.983194 O.3        1 UNL1     -0.5056
     46 O         -3.732315   -2.425355   -4.023981 O.2        1 UNL1     -0.2836
     47 C         -1.070269   0.684467   -5.912028 C.3        1 UNL1     -0.0566
     48 O         0.923045   0.035324   -3.978795 O.3        1 UNL1     -0.3909
     49 C         0.137359   -0.488324   -0.930748 C.3        1 UNL1     -0.0577
     50 O         -2.776857   1.385642   -1.928404 O.3        1 UNL1     -0.3910
     51 O         -4.583637   0.935792   0.229843 O.3        1 UNL1     -0.3753
     52 C         -2.309082   -2.042425   -0.016515 C.3        1 UNL1     -0.0564
     53 O         -0.768087   -0.070749   2.093037 O.3        1 UNL1     -0.4608
     54 C         0.236627   0.754023   2.52689 C.2        1 UNL1     0.3042
     55 O         0.69827   1.736906   1.948388 O.2        1 UNL1     -0.2512
     56 C         0.755862   0.402628   3.892039 C.3        1 UNL1     0.0332
     57 C         -2.880189   2.727372   0.887787 C.3        1 UNL1     -0.0567
     58 C         -6.014956   -3.512857   -1.91117 C.3        1 UNL1     0.0210
     59 C         -5.449475   1.46433   1.233256 C.3        1 UNL1     0.0372
     60 C         -4.757804   -1.055688   -0.960331 C.2        1 UNL1     -0.0208
     61 C         -5.360284   -0.508498   -2.016904 C.2        1 UNL1     0.0882
     62 H         -2.076664   -0.89381   -4.872544 H        1 UNL1     0.0365
     63 H         -2.527235   -2.18966   -6.385154 H        1 UNL1     0.0576
     64 H         -0.055311   -2.760822   -8.13448 H        1 UNL1     0.0615
     65 H         -2.966681   -3.892977   -8.132253 H        1 UNL1     0.0622
     66 H         -5.010709   -0.861105   1.093522 H        1 UNL1     0.0645
     67 H         -3.070651   -1.397988   1.762954 H        1 UNL1     0.0362
     68 H         -2.5747   0.698421   2.181374 H        1 UNL1     0.0741
     69 H         -0.931801   2.189298   0.730664 H        1 UNL1     0.0359
     70 H         -1.177888   2.498279   -1.470127 H        1 UNL1     0.0600
     71 H         0.455084   1.192296   -2.046774 H        1 UNL1     0.0348
     72 H         -1.196279   0.372046   -3.638073 H        1 UNL1     0.0602
     73 H         -4.623925   -2.107811   -0.911739 H        1 UNL1     0.0628
     74 H         -5.483433   0.564249   -2.169503 H        1 UNL1     0.1022
     75 H         -0.396281   -5.217044   -11.031864 H        1 UNL1     0.0279
     76 H         -0.098091   -6.447932   -9.870272 H        1 UNL1     0.0279
     77 H         -1.469128   -6.554843   -11.04676 H        1 UNL1     0.0279
     78 H         -2.011919   -7.440313   -8.326131 H        1 UNL1     0.1553
     79 H         -0.82169   -6.463367   -7.079072 H        1 UNL1     0.1484
     80 H         -0.505887   -5.853369   -3.341738 H        1 UNL1     0.0317
     81 H         -1.759138   -6.87189   -4.035933 H        1 UNL1     0.0317
     82 H         -0.143629   -7.823792   -5.702581 H        1 UNL1     0.0428
     83 H         0.378603   -8.051545   -4.048161 H        1 UNL1     0.0428
     84 H         2.175527   -4.842471   -6.187331 H        1 UNL1     0.0428
     85 H         1.031442   -5.801671   -7.059185 H        1 UNL1     0.0428
     86 H         0.218068   -3.630017   -6.138752 H        1 UNL1     0.0317
     87 H         0.550462   -4.074506   -4.52807 H        1 UNL1     0.0317
     88 H         2.282935   -8.174005   -6.042437 H        1 UNL1     0.0429
     89 H         3.403333   -6.834642   -5.7835 H        1 UNL1     0.0429
     90 H         2.542269   -9.054367   -3.946593 H        1 UNL1     0.0308
     91 H         5.063453   -7.341995   -4.275329 H        1 UNL1     0.0233
     92 H         4.863694   -8.528535   -2.960903 H        1 UNL1     0.0233
     93 H         4.887612   -9.056485   -4.629825 H        1 UNL1     0.0233
     94 H         3.111999   -7.497872   -1.941173 H        1 UNL1     0.0233
     95 H         2.590227   -6.203394   -3.030396 H        1 UNL1     0.0233
     96 H         1.465111   -7.513717   -2.604769 H        1 UNL1     0.0233
     97 H         -9.262759   -4.716876   -4.050897 H        1 UNL1     0.0280
     98 H         -9.549057   -3.754475   -5.475329 H        1 UNL1     0.0280
     99 H         -9.596692   -5.539179   -5.586194 H        1 UNL1     0.0280
     100 H         -7.513167   -6.648519   -7.883719 H        1 UNL1     0.2922
     101 H         -1.977423   1.214272   -5.622142 H        1 UNL1     0.0236
     102 H         -0.923582   0.685048   -6.991596 H        1 UNL1     0.0236
     103 H         -0.246849   1.30213   -5.516219 H        1 UNL1     0.0236
     104 H         1.511207   -0.744813   -3.958223 H        1 UNL1     0.2098
     105 H         -0.394219   -1.435773   -0.891031 H        1 UNL1     0.0234
     106 H         1.21277   -0.660077   -0.974572 H        1 UNL1     0.0234
     107 H         0.0   0.0   0.0 H        1 UNL1     0.0234
     108 H         -3.402002   2.000837   -1.498871 H        1 UNL1     0.2098
     109 H         -2.925834   -2.948585   0.06224 H        1 UNL1     0.0234
     110 H         -2.15795   -1.792668   -1.072226 H        1 UNL1     0.0234
     111 H         -1.309514   -2.331786   0.334314 H        1 UNL1     0.0234
     112 H         1.572854   1.077608   4.164568 H        1 UNL1     0.0342
     113 H         -0.030357   0.416711   4.645369 H        1 UNL1     0.0342
     114 H         1.161025   -0.617895   3.852798 H        1 UNL1     0.0342
     115 H         -3.841142   2.262823   1.148462 H        1 UNL1     0.0234
     116 H         -2.557814   3.319154   1.746808 H        1 UNL1     0.0234
     117 H         -3.189986   3.42491   0.090662 H        1 UNL1     0.0234
     118 H         -6.236693   -2.969437   -0.976006 H        1 UNL1     0.0309
     119 H         -6.706335   -4.355957   -2.008022 H        1 UNL1     0.0309
     120 H         -5.028487   -3.9499   -1.721486 H        1 UNL1     0.0309
     121 H         -5.46612   2.54765   1.117083 H        1 UNL1     0.0524
     122 H         -6.485593   1.10284   1.124521 H        1 UNL1     0.0524
     123 H         -5.085352   1.198901   2.221718 H        1 UNL1     0.0524
@<TRIPOS>BOND
     1     1     2    1
     2     1    42    1
     3     2     3    2
     4     3     4    1
     5     4     5    2
     6     5     7    1
     7     6    75    1
     8     6    76    1
     9     6    77    1
    10     7     9   am
    11     9    10    1
    12    10    11    2
    13    10    43    1
    14    11    14    1
    15    11    15    1
    16    12    13   ar
    17    12    27   ar
    18    12    43    1
    19    13    14    1
    20    13    30   ar
    21    14    17    2
    22    15    16    1
    23    16    17    1
    24    16    18    1
    25    16    22    1
    26    18    19    1
    27    19    20    1
    28    20    21    1
    29    21    22    1
    30    23    24    1
    31    23    88    1
    32    23    89    1
    33    24    25    1
    34    24    26    1
    35    24    90    1
    36    25    91    1
    37    25    92    1
    38    25    93    1
    39    26    94    1
    40    26    95    1
    41    26    96    1
    42    27    28   ar
    43    28    29   ar
    44    29    30   ar
    45    29    31    1
    46    30    33    1
    47    31    32    1
    48    32    33    1
    49    32    35    1
    50    34    97    1
    51    34    98    1
    52    34    99    1
    53    35    61    1
    54    36    37    1
    55    36    60    1
    56    37    38    1
    57    38    39    1
    58    39    40    1
    59    40    41    1
    60    41    42    1
    61    45   100    1
    62    47   101    1
    63    47   102    1
    64    47   103    1
    65    48   104    1
    66    49   105    1
    67    49   106    1
    68    49   107    1
    69    50   108    1
    70    51    59    1
    71    52   109    1
    72    52   110    1
    73    52   111    1
    74    53    54    1
    75    54    55    2
    76    54    56    1
    77    56   112    1
    78    56   113    1
    79    56   114    1
    80    57   115    1
    81    57   116    1
    82    57   117    1
    83    58   118    1
    84    58   119    1
    85    58   120    1
    86    59   121    1
    87    59   122    1
    88    59   123    1
    89    60    61    2
    90     1    47    1
    91     1    62    1
    92     2    63    1
    93     3    64    1
    94     4    65    1
    95     5     6    1
    96     7     8    2
    97     9    78    1
    98    15    79    1
    99    18    80    1
   100    18    81    1
   101    19    82    1
   102    19    83    1
   103    20    23    1
   104    21    84    1
   105    21    85    1
   106    22    86    1
   107    22    87    1
   108    27    45    1
   109    28    34    1
   110    32    58    1
   111    33    46    2
   112    36    51    1
   113    36    66    1
   114    37    52    1
   115    37    67    1
   116    38    53    1
   117    38    68    1
   118    42    48    1
   119    42    72    1
   120    43    44    2
   121    60    73    1
   122    61    74    1
   123    39    69    1
   124    39    57    1
   125    40    70    1
   126    40    50    1
   127    41    71    1
   128    41    49    1
