@<TRIPOS>MOLECULE
*****
 123 128 0 0 0
SMALL
GASTEIGER

@<TRIPOS>ATOM
     1 C         5.165336   1.755237   0.487563 C.3        1 UNL1     0.0009
     2 C         6.60168   2.559686   -0.364971 C.2        1 UNL1     -0.0787
     3 C         7.883957   2.46035   -1.02976 C.2        1 UNL1     -0.0649
     4 C         8.760625   3.69363   -1.789254 C.2        1 UNL1     -0.0542
     5 C         9.780818   3.983928   -2.728408 C.2        1 UNL1     0.0115
     6 C         10.909991   3.356497   -3.591323 C.3        1 UNL1     -0.0348
     7 C         9.875081   5.465142   -3.340051 C.2        1 UNL1     0.2441
     8 O         10.698036   6.28886   -2.964872 O.2        1 UNL1     -0.2702
     9 N         9.125214   5.667328   -4.51179 N.am        1 UNL1     -0.2772
     10 C         7.842   6.053926   -4.199981 C.2        1 UNL1     0.1049
     11 C         6.996968   5.082765   -3.905043 C.2        1 UNL1     0.0801
     12 C         6.541482   7.664308   -2.795467 C.ar        1 UNL1     0.0753
     13 C         5.783249   6.537268   -2.344387 C.ar        1 UNL1     0.0305
     14 C         5.901676   5.229427   -2.985151 C.2        1 UNL1     0.0924
     15 N         7.120879   3.753352   -4.059428 N.pl3        1 UNL1     -0.3170
     16 C         5.851423   3.154119   -3.743745 C.3        1 UNL1     0.1275
     17 N         5.213693   4.11219   -2.767463 N.2        1 UNL1     -0.2557
     18 C         4.999108   3.207989   -5.008007 C.3        1 UNL1     0.0016
     19 C         5.755139   2.520648   -6.133871 C.3        1 UNL1     0.0026
     20 N         6.026363   1.144152   -5.743071 N.3        1 UNL1     -0.3018
     21 C         6.789291   0.988792   -4.50284 C.3        1 UNL1     0.0026
     22 C         6.009393   1.682513   -3.384624 C.3        1 UNL1     0.0016
     23 C         6.472135   0.321148   -6.849685 C.3        1 UNL1     0.0012
     24 C         5.317375   0.067181   -7.831411 C.3        1 UNL1     -0.0339
     25 C         5.352719   1.05525   -9.00892 C.3        1 UNL1     -0.0615
     26 C         5.348018   -1.373971   -8.309868 C.3        1 UNL1     -0.0615
     27 C         6.335411   8.933693   -2.260383 C.ar        1 UNL1     0.1347
     28 C         5.375661   9.205717   -1.301772 C.ar        1 UNL1     0.0342
     29 C         4.674925   8.072242   -0.837697 C.ar        1 UNL1     0.1435
     30 C         4.895775   6.788656   -1.33855 C.ar        1 UNL1     0.0774
     31 O         3.633435   8.187839   0.014913 O.3        1 UNL1     -0.4436
     32 C         2.912952   6.953868   -0.123264 C.3        1 UNL1     0.3143
     33 C         3.927403   5.959836   -0.65147 C.2        1 UNL1     0.2504
     34 C         4.927369   10.572945   -0.866085 C.3        1 UNL1     -0.0327
     35 O         2.55211   6.521447   1.194332 O.2        1 UNL1     -0.4528
     36 C         -0.688984   4.584912   0.802888 C.3        1 UNL1     0.0854
     37 C         -0.992725   3.320913   -0.090181 C.3        1 UNL1     0.0236
     38 C         -1.592487   2.062087   0.701896 C.3        1 UNL1     0.1131
     39 C         -0.866838   1.53638   2.005482 C.3        1 UNL1     0.0200
     40 C         0.794467   1.392503   2.047913 C.3        1 UNL1     0.0661
     41 C         1.755073   0.620462   0.882238 C.3        1 UNL1     0.0091
     42 C         3.462585   0.982605   0.31774 C.3        1 UNL1     0.0661
     43 C         7.492225   7.453549   -3.915256 C.2        1 UNL1     0.2131
     44 O         7.891614   8.349469   -4.63675 O.2        1 UNL1     -0.2851
     45 O         7.14694   9.96793   -2.722131 O.3        1 UNL1     -0.5056
     46 O         3.944433   4.756782   -0.516466 O.2        1 UNL1     -0.2836
     47 C         5.561436   1.33117   1.927442 C.3        1 UNL1     -0.0566
     48 O         3.912402   -0.427793   0.404679 O.3        1 UNL1     -0.3909
     49 C         0.921663   0.382759   -0.357285 C.3        1 UNL1     -0.0577
     50 O         1.393374   2.612285   2.436714 O.3        1 UNL1     -0.3910
     51 O         -0.813531   4.400007   2.194912 O.3        1 UNL1     -0.3753
     52 C         0.052399   3.157354   -1.241664 C.3        1 UNL1     -0.0564
     53 O         -2.193732   1.0194   -0.194561 O.3        1 UNL1     -0.4608
     54 C         -2.427102   -0.286365   0.149597 C.2        1 UNL1     0.3042
     55 O         -1.855875   -1.286398   -0.283382 O.2        1 UNL1     -0.2512
     56 C         -3.468956   -0.44932   1.219503 C.3        1 UNL1     0.0332
     57 C         -1.589048   2.209138   3.264046 C.3        1 UNL1     -0.0567
     58 C         1.838024   7.194167   -1.208767 C.3        1 UNL1     0.0210
     59 C         -1.128139   5.581317   2.930706 C.3        1 UNL1     0.0372
     60 C         0.639541   5.214397   0.57066 C.2        1 UNL1     -0.0208
     61 C         1.551686   5.653515   1.438941 C.2        1 UNL1     0.0882
     62 H         4.688479   2.739275   0.571159 H        1 UNL1     0.0365
     63 H         6.334424   3.613606   -0.26349 H        1 UNL1     0.0576
     64 H         8.342593   1.493148   -1.247204 H        1 UNL1     0.0615
     65 H         8.272551   4.609794   -1.445873 H        1 UNL1     0.0622
     66 H         -1.434175   5.329664   0.489711 H        1 UNL1     0.0645
     67 H         -1.85828   3.627338   -0.702944 H        1 UNL1     0.0362
     68 H         -2.540113   2.499332   1.051673 H        1 UNL1     0.0741
     69 H         -1.197527   0.525673   2.204289 H        1 UNL1     0.0359
     70 H         0.906449   0.735377   2.931489 H        1 UNL1     0.0600
     71 H         1.799395   -0.399156   1.312787 H        1 UNL1     0.0348
     72 H         3.35582   1.474155   1.295644 H        1 UNL1     0.0602
     73 H         0.757721   5.408107   -0.466528 H        1 UNL1     0.0628
     74 H         1.533854   5.446599   2.509504 H        1 UNL1     0.1022
     75 H         10.936812   2.24832   -3.456203 H        1 UNL1     0.0279
     76 H         10.810182   3.45867   -4.669594 H        1 UNL1     0.0279
     77 H         11.915446   3.641136   -3.248188 H        1 UNL1     0.0279
     78 H         9.06424   4.795482   -5.03356 H        1 UNL1     0.1553
     79 H         7.786814   3.323798   -4.675014 H        1 UNL1     0.1484
     80 H         4.038187   2.716865   -4.812571 H        1 UNL1     0.0317
     81 H         4.771676   4.243575   -5.282757 H        1 UNL1     0.0317
     82 H         6.685428   3.051923   -6.383313 H        1 UNL1     0.0428
     83 H         5.130334   2.572083   -7.026072 H        1 UNL1     0.0428
     84 H         6.910422   -0.052955   -4.189948 H        1 UNL1     0.0428
     85 H         7.819094   1.357397   -4.607497 H        1 UNL1     0.0428
     86 H         6.525639   1.435819   -2.475438 H        1 UNL1     0.0317
     87 H         5.030328   1.204426   -3.258287 H        1 UNL1     0.0317
     88 H         7.267939   0.861811   -7.378527 H        1 UNL1     0.0429
     89 H         6.905435   -0.622988   -6.495239 H        1 UNL1     0.0429
     90 H         4.363998   0.187248   -7.303329 H        1 UNL1     0.0308
     91 H         6.306173   1.00346   -9.543097 H        1 UNL1     0.0233
     92 H         4.538323   0.852069   -9.708265 H        1 UNL1     0.0233
     93 H         5.225497   2.09539   -8.685257 H        1 UNL1     0.0233
     94 H         4.654023   -1.509018   -9.146509 H        1 UNL1     0.0233
     95 H         6.351914   -1.630193   -8.659877 H        1 UNL1     0.0233
     96 H         5.065365   -2.065642   -7.511327 H        1 UNL1     0.0233
     97 H         4.127456   10.525153   -0.133224 H        1 UNL1     0.0280
     98 H         5.736969   11.141922   -0.390618 H        1 UNL1     0.0280
     99 H         4.56237   11.137449   -1.739702 H        1 UNL1     0.0280
     100 H         6.67938   10.717501   -3.046407 H        1 UNL1     0.2922
     101 H         4.69564   0.909954   2.43796 H        1 UNL1     0.0236
     102 H         6.022325   2.135578   2.499713 H        1 UNL1     0.0236
     103 H         6.309248   0.520636   1.929508 H        1 UNL1     0.0236
     104 H         4.326282   -0.55189   1.281191 H        1 UNL1     0.2098
     105 H         0.70845   1.279369   -0.933864 H        1 UNL1     0.0234
     106 H         1.292062   -0.407233   -1.010465 H        1 UNL1     0.0234
     107 H         0.0   -0.0   0.0 H        1 UNL1     0.0234
     108 H         1.209564   3.263225   1.732257 H        1 UNL1     0.2098
     109 H         1.078607   3.058549   -0.861075 H        1 UNL1     0.0234
     110 H         -0.172318   2.32007   -1.911142 H        1 UNL1     0.0234
     111 H         0.064295   4.032617   -1.904778 H        1 UNL1     0.0234
     112 H         -3.591431   -1.509449   1.461313 H        1 UNL1     0.0342
     113 H         -3.234493   0.130241   2.111119 H        1 UNL1     0.0342
     114 H         -4.426103   -0.081054   0.825277 H        1 UNL1     0.0342
     115 H         -2.658461   1.960019   3.302556 H        1 UNL1     0.0234
     116 H         -1.152761   1.933169   4.226098 H        1 UNL1     0.0234
     117 H         -1.628632   3.31078   3.211514 H        1 UNL1     0.0234
     118 H         0.935701   7.68029   -0.798275 H        1 UNL1     0.0309
     119 H         2.206802   7.7808   -2.056155 H        1 UNL1     0.0309
     120 H         1.4516   6.260392   -1.631671 H        1 UNL1     0.0309
     121 H         -0.296211   6.274988   2.81207 H        1 UNL1     0.0524
     122 H         -2.034418   6.081808   2.550962 H        1 UNL1     0.0524
     123 H         -1.27073   5.343143   3.980961 H        1 UNL1     0.0524
@<TRIPOS>BOND
     1     1     2    1
     2     1    42    1
     3     2     3    2
     4     3     4    1
     5     4     5    2
     6     5     7    1
     7     6    75    1
     8     6    76    1
     9     6    77    1
    10     7     9   am
    11     9    10    1
    12    10    11    2
    13    10    43    1
    14    11    14    1
    15    11    15    1
    16    12    13   ar
    17    12    27   ar
    18    12    43    1
    19    13    14    1
    20    13    30   ar
    21    14    17    2
    22    15    16    1
    23    16    17    1
    24    16    18    1
    25    16    22    1
    26    18    19    1
    27    19    20    1
    28    20    21    1
    29    21    22    1
    30    23    24    1
    31    23    88    1
    32    23    89    1
    33    24    25    1
    34    24    26    1
    35    24    90    1
    36    25    91    1
    37    25    92    1
    38    25    93    1
    39    26    94    1
    40    26    95    1
    41    26    96    1
    42    27    28   ar
    43    28    29   ar
    44    29    30   ar
    45    29    31    1
    46    30    33    1
    47    31    32    1
    48    32    33    1
    49    32    35    1
    50    34    97    1
    51    34    98    1
    52    34    99    1
    53    35    61    1
    54    36    37    1
    55    36    60    1
    56    37    38    1
    57    38    39    1
    58    39    40    1
    59    40    41    1
    60    41    42    1
    61    45   100    1
    62    47   101    1
    63    47   102    1
    64    47   103    1
    65    48   104    1
    66    49   105    1
    67    49   106    1
    68    49   107    1
    69    50   108    1
    70    51    59    1
    71    52   109    1
    72    52   110    1
    73    52   111    1
    74    53    54    1
    75    54    55    2
    76    54    56    1
    77    56   112    1
    78    56   113    1
    79    56   114    1
    80    57   115    1
    81    57   116    1
    82    57   117    1
    83    58   118    1
    84    58   119    1
    85    58   120    1
    86    59   121    1
    87    59   122    1
    88    59   123    1
    89    60    61    2
    90     1    47    1
    91     1    62    1
    92     2    63    1
    93     3    64    1
    94     4    65    1
    95     5     6    1
    96     7     8    2
    97     9    78    1
    98    15    79    1
    99    18    80    1
   100    18    81    1
   101    19    82    1
   102    19    83    1
   103    20    23    1
   104    21    84    1
   105    21    85    1
   106    22    86    1
   107    22    87    1
   108    27    45    1
   109    28    34    1
   110    32    58    1
   111    33    46    2
   112    36    51    1
   113    36    66    1
   114    37    52    1
   115    37    67    1
   116    38    53    1
   117    38    68    1
   118    42    48    1
   119    42    72    1
   120    43    44    2
   121    60    73    1
   122    61    74    1
   123    39    69    1
   124    39    57    1
   125    40    70    1
   126    40    50    1
   127    41    71    1
   128    41    49    1
