@<TRIPOS>MOLECULE
*****
 123 128 0 0 0
SMALL
GASTEIGER

@<TRIPOS>ATOM
     1 C         5.168048   1.747528   0.486521 C.3        1 UNL1     0.0009
     2 C         6.6043   2.552867   -0.365325 C.2        1 UNL1     -0.0787
     3 C         7.885631   2.454034   -1.032012 C.2        1 UNL1     -0.0649
     4 C         8.76284   3.688588   -1.788805 C.2        1 UNL1     -0.0542
     5 C         9.782216   3.980546   -2.728332 C.2        1 UNL1     0.0115
     6 C         10.909561   3.354414   -3.594575 C.3        1 UNL1     -0.0348
     7 C         9.877504   5.463518   -3.335541 C.2        1 UNL1     0.2441
     8 O         10.701915   6.285091   -2.958858 O.2        1 UNL1     -0.2702
     9 N         9.126427   5.670203   -4.505719 N.am        1 UNL1     -0.2772
     10 C         7.844068   6.057382   -4.191127 C.2        1 UNL1     0.1049
     11 C         6.998234   5.086334   -3.898121 C.2        1 UNL1     0.0801
     12 C         6.547234   7.665001   -2.780057 C.ar        1 UNL1     0.0753
     13 C         5.788205   6.537492   -2.331497 C.ar        1 UNL1     0.0305
     14 C         5.904261   5.231484   -2.976421 C.2        1 UNL1     0.0924
     15 N         7.120351   3.757254   -4.056742 N.pl3        1 UNL1     -0.3170
     16 C         5.850567   3.158579   -3.741321 C.3        1 UNL1     0.1275
     17 N         5.215204   4.11441   -2.761308 N.2        1 UNL1     -0.2557
     18 C         4.996749   3.217357   -5.00435 C.3        1 UNL1     0.0016
     19 C         5.750554   2.532571   -6.133259 C.3        1 UNL1     0.0026
     20 N         6.020605   1.154556   -5.747027 N.3        1 UNL1     -0.3018
     21 C         6.784884   0.99447   -4.508229 C.3        1 UNL1     0.0026
     22 C         6.00721   1.685688   -3.386918 C.3        1 UNL1     0.0016
     23 C         6.464012   0.334421   -6.856717 C.3        1 UNL1     0.0012
     24 C         5.307729   0.084858   -7.83778 C.3        1 UNL1     -0.0339
     25 C         5.382669   1.030735   -9.047638 C.3        1 UNL1     -0.0615
     26 C         5.294289   -1.371936   -8.267143 C.3        1 UNL1     -0.0615
     27 C         6.343357   8.932983   -2.24082 C.ar        1 UNL1     0.1347
     28 C         5.385126   9.203212   -1.280185 C.ar        1 UNL1     0.0342
     29 C         4.683601   8.069158   -0.818722 C.ar        1 UNL1     0.1435
     30 C         4.902284   6.786854   -1.323788 C.ar        1 UNL1     0.0774
     31 O         3.643311   8.183386   0.035535 O.3        1 UNL1     -0.4436
     32 C         2.921171   6.950711   -0.105533 C.3        1 UNL1     0.3143
     33 C         3.933767   5.957089   -0.638052 C.2        1 UNL1     0.2504
     34 C         4.939022   10.569632   -0.839744 C.3        1 UNL1     -0.0327
     35 O         2.561443   6.514678   1.211176 O.2        1 UNL1     -0.4528
     36 C         -0.682464   4.583247   0.817821 C.3        1 UNL1     0.0854
     37 C         -0.988835   3.322364   -0.078746 C.3        1 UNL1     0.0236
     38 C         -1.589129   2.061831   0.710207 C.3        1 UNL1     0.1131
     39 C         -0.862498   1.531251   2.011268 C.3        1 UNL1     0.0200
     40 C         0.798685   1.385249   2.05119 C.3        1 UNL1     0.0661
     41 C         1.756913   0.61564   0.881954 C.3        1 UNL1     0.0091
     42 C         3.464158   0.977466   0.316446 C.3        1 UNL1     0.0661
     43 C         7.496333   7.456542   -3.90167 C.2        1 UNL1     0.2131
     44 O         7.895905   8.354195   -4.620906 O.2        1 UNL1     -0.2851
     45 O         7.155557   9.967659   -2.7004 O.3        1 UNL1     -0.5056
     46 O         3.949516   4.753607   -0.506764 O.2        1 UNL1     -0.2836
     47 C         5.565423   1.318563   1.924597 C.3        1 UNL1     -0.0566
     48 O         3.912383   -0.433732   0.398493 O.3        1 UNL1     -0.3909
     49 C         0.921679   0.382748   -0.357255 C.3        1 UNL1     -0.0577
     50 O         1.399542   2.603111   2.442988 O.3        1 UNL1     -0.3910
     51 O         -0.805506   4.394216   2.209425 O.3        1 UNL1     -0.3753
     52 C         0.054661   3.161089   -1.232026 C.3        1 UNL1     -0.0564
     53 O         -2.192742   1.022626   -0.188699 O.3        1 UNL1     -0.4608
     54 C         -2.414769   -0.287256   0.147221 C.2        1 UNL1     0.3042
     55 O         -1.842743   -1.280365   -0.300395 O.2        1 UNL1     -0.2512
     56 C         -3.443582   -0.465043   1.227336 C.3        1 UNL1     0.0332
     57 C         -1.582334   2.201005   3.272791 C.3        1 UNL1     -0.0567
     58 C         1.845187   7.195634   -1.188954 C.3        1 UNL1     0.0210
     59 C         -1.117778   5.573637   2.949235 C.3        1 UNL1     0.0372
     60 C         0.646529   5.211847   0.585874 C.2        1 UNL1     -0.0208
     61 C         1.560279   5.6472   1.454363 C.2        1 UNL1     0.0882
     62 H         4.69248   2.731876   0.573732 H        1 UNL1     0.0365
     63 H         6.33844   3.60679   -0.260275 H        1 UNL1     0.0576
     64 H         8.342831   1.486955   -1.252995 H        1 UNL1     0.0615
     65 H         8.276297   4.604279   -1.442005 H        1 UNL1     0.0622
     66 H         -1.427146   5.329853   0.50786 H        1 UNL1     0.0645
     67 H         -1.85478   3.631709   -0.689488 H        1 UNL1     0.0362
     68 H         -2.535793   2.499137   1.062504 H        1 UNL1     0.0741
     69 H         -1.194157   0.520336   2.207382 H        1 UNL1     0.0359
     70 H         0.910972   0.725278   2.932603 H        1 UNL1     0.0600
     71 H         1.800541   -0.405348   1.309315 H        1 UNL1     0.0348
     72 H         3.359198   1.466137   1.295987 H        1 UNL1     0.0602
     73 H         0.763655   5.408601   -0.45086 H        1 UNL1     0.0628
     74 H         1.543526   5.437017   2.524307 H        1 UNL1     0.1022
     75 H         10.935214   2.245795   -3.462892 H        1 UNL1     0.0279
     76 H         10.808537   3.460019   -4.672402 H        1 UNL1     0.0279
     77 H         11.915783   3.636789   -3.251819 H        1 UNL1     0.0279
     78 H         9.063756   4.800038   -5.030088 H        1 UNL1     0.1553
     79 H         7.785004   3.328795   -4.674473 H        1 UNL1     0.1484
     80 H         4.035481   2.726788   -4.809228 H        1 UNL1     0.0317
     81 H         4.770225   4.254054   -5.275635 H        1 UNL1     0.0317
     82 H         6.681172   3.063492   -6.382227 H        1 UNL1     0.0428
     83 H         5.124705   2.587497   -7.02452 H        1 UNL1     0.0428
     84 H         6.905149   -0.048378   -4.198689 H        1 UNL1     0.0428
     85 H         7.814999   1.362158   -4.613035 H        1 UNL1     0.0428
     86 H         6.524287   1.435581   -2.479137 H        1 UNL1     0.0317
     87 H         5.027728   1.208391   -3.260832 H        1 UNL1     0.0317
     88 H         7.25981   0.87575   -7.384886 H        1 UNL1     0.0429
     89 H         6.896613   -0.61132   -6.505712 H        1 UNL1     0.0429
     90 H         4.355502   0.253621   -7.321064 H        1 UNL1     0.0308
     91 H         6.337241   0.929964   -9.572747 H        1 UNL1     0.0233
     92 H         4.566457   0.83045   -9.745701 H        1 UNL1     0.0233
     93 H         5.287457   2.084837   -8.760168 H        1 UNL1     0.0233
     94 H         4.601493   -1.512724   -9.103831 H        1 UNL1     0.0233
     95 H         6.29145   -1.672298   -8.60093 H        1 UNL1     0.0233
     96 H         4.984222   -2.026583   -7.447836 H        1 UNL1     0.0233
     97 H         4.139962   10.520549   -0.106038 H        1 UNL1     0.0280
     98 H         5.749896   11.136173   -0.36354 H        1 UNL1     0.0280
     99 H         4.57362   11.137255   -1.711168 H        1 UNL1     0.0280
     100 H         6.688499   10.718783   -3.02179 H        1 UNL1     0.2922
     101 H         4.699754   0.89682   2.434897 H        1 UNL1     0.0236
     102 H         6.02799   2.120655   2.498761 H        1 UNL1     0.0236
     103 H         6.312261   0.507129   1.923243 H        1 UNL1     0.0236
     104 H         4.3272   -0.561018   1.274104 H        1 UNL1     0.2098
     105 H         0.708831   1.281381   -0.930812 H        1 UNL1     0.0234
     106 H         1.290315   -0.405678   -1.013319 H        1 UNL1     0.0234
     107 H         0.0   -0.0   0.0 H        1 UNL1     0.0234
     108 H         1.215643   3.256433   1.740763 H        1 UNL1     0.2098
     109 H         1.08122   3.059883   -0.85302 H        1 UNL1     0.0234
     110 H         -0.171894   2.326136   -1.903792 H        1 UNL1     0.0234
     111 H         0.066788   4.03837   -1.892463 H        1 UNL1     0.0234
     112 H         -3.557275   -1.527817   1.461711 H        1 UNL1     0.0342
     113 H         -3.202424   0.108521   2.121042 H        1 UNL1     0.0342
     114 H         -4.407188   -0.099109   0.846913 H        1 UNL1     0.0342
     115 H         -2.651998   1.953053   3.311866 H        1 UNL1     0.0234
     116 H         -1.145186   1.921558   4.233447 H        1 UNL1     0.0234
     117 H         -1.620656   3.30285   3.223691 H        1 UNL1     0.0234
     118 H         0.94396   7.681577   -0.775849 H        1 UNL1     0.0309
     119 H         2.213619   7.784426   -2.034995 H        1 UNL1     0.0309
     120 H         1.457114   6.263628   -1.614243 H        1 UNL1     0.0309
     121 H         -0.27963   6.261656   2.842022 H        1 UNL1     0.0524
     122 H         -2.016839   6.083145   2.564361 H        1 UNL1     0.0524
     123 H         -1.27153   5.330531   3.996781 H        1 UNL1     0.0524
@<TRIPOS>BOND
     1     1     2    1
     2     1    42    1
     3     2     3    2
     4     3     4    1
     5     4     5    2
     6     5     7    1
     7     6    75    1
     8     6    76    1
     9     6    77    1
    10     7     9   am
    11     9    10    1
    12    10    11    2
    13    10    43    1
    14    11    14    1
    15    11    15    1
    16    12    13   ar
    17    12    27   ar
    18    12    43    1
    19    13    14    1
    20    13    30   ar
    21    14    17    2
    22    15    16    1
    23    16    17    1
    24    16    18    1
    25    16    22    1
    26    18    19    1
    27    19    20    1
    28    20    21    1
    29    21    22    1
    30    23    24    1
    31    23    88    1
    32    23    89    1
    33    24    25    1
    34    24    26    1
    35    24    90    1
    36    25    91    1
    37    25    92    1
    38    25    93    1
    39    26    94    1
    40    26    95    1
    41    26    96    1
    42    27    28   ar
    43    28    29   ar
    44    29    30   ar
    45    29    31    1
    46    30    33    1
    47    31    32    1
    48    32    33    1
    49    32    35    1
    50    34    97    1
    51    34    98    1
    52    34    99    1
    53    35    61    1
    54    36    37    1
    55    36    60    1
    56    37    38    1
    57    38    39    1
    58    39    40    1
    59    40    41    1
    60    41    42    1
    61    45   100    1
    62    47   101    1
    63    47   102    1
    64    47   103    1
    65    48   104    1
    66    49   105    1
    67    49   106    1
    68    49   107    1
    69    50   108    1
    70    51    59    1
    71    52   109    1
    72    52   110    1
    73    52   111    1
    74    53    54    1
    75    54    55    2
    76    54    56    1
    77    56   112    1
    78    56   113    1
    79    56   114    1
    80    57   115    1
    81    57   116    1
    82    57   117    1
    83    58   118    1
    84    58   119    1
    85    58   120    1
    86    59   121    1
    87    59   122    1
    88    59   123    1
    89    60    61    2
    90     1    47    1
    91     1    62    1
    92     2    63    1
    93     3    64    1
    94     4    65    1
    95     5     6    1
    96     7     8    2
    97     9    78    1
    98    15    79    1
    99    18    80    1
   100    18    81    1
   101    19    82    1
   102    19    83    1
   103    20    23    1
   104    21    84    1
   105    21    85    1
   106    22    86    1
   107    22    87    1
   108    27    45    1
   109    28    34    1
   110    32    58    1
   111    33    46    2
   112    36    51    1
   113    36    66    1
   114    37    52    1
   115    37    67    1
   116    38    53    1
   117    38    68    1
   118    42    48    1
   119    42    72    1
   120    43    44    2
   121    60    73    1
   122    61    74    1
   123    39    69    1
   124    39    57    1
   125    40    70    1
   126    40    50    1
   127    41    71    1
   128    41    49    1
