@<TRIPOS>MOLECULE
*****
 123 128 0 0 0
SMALL
GASTEIGER

@<TRIPOS>ATOM
     1 C         -2.113907   -0.667654   3.488848 C.3        1 UNL1     0.0009
     2 C         -1.530617   -1.493851   5.04262 C.2        1 UNL1     -0.0787
     3 C         -1.392946   -2.682522   5.857576 C.2        1 UNL1     -0.0649
     4 C         -0.556401   -2.850475   7.319883 C.2        1 UNL1     -0.0542
     5 C         0.047025   -3.769537   8.213348 C.2        1 UNL1     0.0115
     6 C         0.213672   -5.27899   8.540616 C.3        1 UNL1     -0.0348
     7 C         1.093554   -3.22269   9.300879 C.2        1 UNL1     0.2441
     8 O         0.804809   -3.058066   10.478185 O.2        1 UNL1     -0.2702
     9 N         2.430912   -3.193605   8.868699 N.am        1 UNL1     -0.2772
     10 C         2.707338   -1.999983   8.242459 C.2        1 UNL1     0.1049
     11 C         2.362959   -1.916781   6.970176 C.2        1 UNL1     0.0801
     12 C         2.480622   0.477242   8.505689 C.ar        1 UNL1     0.0753
     13 C         1.915077   0.486347   7.190895 C.ar        1 UNL1     0.0305
     14 C         1.959971   -0.693776   6.330461 C.2        1 UNL1     0.0924
     15 N         1.972719   -2.878557   6.116228 N.pl3        1 UNL1     -0.3170
     16 C         1.881051   -2.291798   4.805669 C.3        1 UNL1     0.1275
     17 N         1.579859   -0.835655   5.063847 N.2        1 UNL1     -0.2557
     18 C         3.277708   -2.333199   4.193021 C.3        1 UNL1     0.0016
     19 C         3.771109   -3.771262   4.203903 C.3        1 UNL1     0.0026
     20 N         2.839879   -4.591086   3.441192 N.3        1 UNL1     -0.3018
     21 C         1.455565   -4.566807   3.918111 C.3        1 UNL1     0.0026
     22 C         0.978772   -3.113532   3.894519 C.3        1 UNL1     0.0016
     23 C         3.365478   -5.907144   3.13725 C.3        1 UNL1     0.0012
     24 C         2.226599   -6.935463   3.051989 C.3        1 UNL1     -0.0339
     25 C         2.719906   -8.350704   3.395208 C.3        1 UNL1     -0.0615
     26 C         1.074917   -6.512479   3.947251 C.3        1 UNL1     -0.0615
     27 C         2.541985   1.638077   9.273031 C.ar        1 UNL1     0.1347
     28 C         2.10786   2.870778   8.81912 C.ar        1 UNL1     0.0342
     29 C         1.510316   2.846052   7.541038 C.ar        1 UNL1     0.1435
     30 C         1.409117   1.683805   6.775427 C.ar        1 UNL1     0.0774
     31 O         1.137732   3.983784   6.915136 O.3        1 UNL1     -0.4436
     32 C         1.036611   3.619418   5.530259 C.3        1 UNL1     0.3143
     33 C         0.812909   2.120695   5.530265 C.2        1 UNL1     0.2504
     34 C         2.368939   4.195619   9.479977 C.3        1 UNL1     -0.0327
     35 O         -0.159433   4.219751   5.018076 O.2        1 UNL1     -0.4528
     36 C         0.505466   4.891943   1.341916 C.3        1 UNL1     0.0854
     37 C         0.921312   3.882363   0.203784 C.3        1 UNL1     0.0236
     38 C         -0.041098   3.876211   -1.078976 C.3        1 UNL1     0.1131
     39 C         -1.604354   3.729128   -0.886969 C.3        1 UNL1     0.0200
     40 C         -2.222155   2.616373   0.191241 C.3        1 UNL1     0.0661
     41 C         -1.789913   0.978758   0.286078 C.3        1 UNL1     0.0091
     42 C         -1.706477   -0.148223   1.731192 C.3        1 UNL1     0.0661
     43 C         3.081011   -0.790349   8.990462 C.2        1 UNL1     0.2131
     44 O         3.912719   -0.844886   9.87817 O.2        1 UNL1     -0.2851
     45 O         3.066002   1.533785   10.559875 O.3        1 UNL1     -0.5056
     46 O         0.249659   1.442888   4.700096 O.2        1 UNL1     -0.2836
     47 C         -3.654492   -0.479611   3.523742 C.3        1 UNL1     -0.0566
     48 O         -2.441037   -1.247865   1.060128 O.3        1 UNL1     -0.3909
     49 C         -0.527481   0.759928   -0.517584 C.3        1 UNL1     -0.0577
     50 O         -2.306831   3.169683   1.489086 O.3        1 UNL1     -0.3910
     51 O         -0.740334   5.530159   1.174303 O.3        1 UNL1     -0.3753
     52 C         1.536678   2.568787   0.787559 C.3        1 UNL1     -0.0564
     53 O         0.553173   3.186964   -2.272336 O.3        1 UNL1     -0.4608
     54 C         1.735594   2.494369   -2.283435 C.2        1 UNL1     0.3042
     55 O         1.930051   1.35537   -2.70617 O.2        1 UNL1     -0.2512
     56 C         2.900549   3.284894   -1.75935 C.3        1 UNL1     0.0332
     57 C         -2.229929   5.201123   -0.879286 C.3        1 UNL1     -0.0567
     58 C         2.415786   3.917959   4.897583 C.3        1 UNL1     0.0210
     59 C         -1.240876   5.526189   -0.161851 C.3        1 UNL1     0.0372
     60 C         0.516405   4.326729   2.718714 C.2        1 UNL1     -0.0208
     61 C         -0.372655   4.439287   3.706463 C.2        1 UNL1     0.0882
     62 H         -1.675782   0.271854   3.846734 H        1 UNL1     0.0365
     63 H         -1.149225   -0.635096   5.598992 H        1 UNL1     0.0576
     64 H         -1.702029   -3.664964   5.49373 H        1 UNL1     0.0615
     65 H         -0.366791   -1.819741   7.631521 H        1 UNL1     0.0622
     66 H         1.288543   5.663046   1.326522 H        1 UNL1     0.0645
     67 H         1.844527   4.317711   -0.216579 H        1 UNL1     0.0362
     68 H         0.113948   4.907772   -1.43021 H        1 UNL1     0.0741
     69 H         -2.042585   3.418084   -1.825912 H        1 UNL1     0.0359
     70 H         -3.270931   2.57268   -0.159787 H        1 UNL1     0.0600
     71 H         -2.553348   0.538184   -0.384756 H        1 UNL1     0.0348
     72 H         -2.348387   0.690529   2.037397 H        1 UNL1     0.0602
     73 H         1.457021   3.869274   2.90099 H        1 UNL1     0.0628
     74 H         -1.379194   4.841663   3.587261 H        1 UNL1     0.1022
     75 H         1.098938   -5.441387   9.201649 H        1 UNL1     0.0279
     76 H         -0.59003   -5.744227   9.106909 H        1 UNL1     0.0279
     77 H         0.488305   -5.877361   7.659578 H        1 UNL1     0.0279
     78 H         2.588094   -3.937942   8.192436 H        1 UNL1     0.1553
     79 H         2.14257   -3.856523   6.263419 H        1 UNL1     0.1484
     80 H         3.232676   -1.932917   3.172966 H        1 UNL1     0.0317
     81 H         3.968885   -1.692397   4.750962 H        1 UNL1     0.0317
     82 H         3.887801   -4.153911   5.228537 H        1 UNL1     0.0428
     83 H         4.76906   -3.777635   3.764466 H        1 UNL1     0.0428
     84 H         0.762558   -5.126028   3.281853 H        1 UNL1     0.0428
     85 H         1.354501   -5.041175   4.904051 H        1 UNL1     0.0428
     86 H         -0.070898   -3.14948   4.120101 H        1 UNL1     0.0317
     87 H         1.004724   -2.727269   2.868252 H        1 UNL1     0.0317
     88 H         3.865813   -5.858046   2.161264 H        1 UNL1     0.0429
     89 H         4.121739   -6.213788   3.871289 H        1 UNL1     0.0429
     90 H         1.825467   -6.943393   2.031576 H        1 UNL1     0.0308
     91 H         2.350206   -9.086409   2.674679 H        1 UNL1     0.0233
     92 H         3.811715   -8.385085   3.414699 H        1 UNL1     0.0233
     93 H         2.385839   -8.680483   4.386409 H        1 UNL1     0.0233
     94 H         0.401726   -7.358745   4.121846 H        1 UNL1     0.0233
     95 H         1.457518   -6.180524   4.916469 H        1 UNL1     0.0233
     96 H         0.498204   -5.699103   3.49804 H        1 UNL1     0.0233
     97 H         3.145312   4.127763   10.236198 H        1 UNL1     0.0280
     98 H         2.711753   4.954517   8.764569 H        1 UNL1     0.0280
     99 H         1.445905   4.55503   9.963638 H        1 UNL1     0.0280
     100 H         2.710797   0.828136   11.071258 H        1 UNL1     0.2922
     101 H         -4.083785   -1.106387   4.305096 H        1 UNL1     0.0236
     102 H         -4.128877   -0.648078   2.557532 H        1 UNL1     0.0236
     103 H         -3.93999   0.548761   3.801475 H        1 UNL1     0.0236
     104 H         -3.012322   -1.672576   1.729624 H        1 UNL1     0.2098
     105 H         -0.696592   0.414173   -1.534278 H        1 UNL1     0.0234
     106 H         0.165532   1.601149   -0.515 H        1 UNL1     0.0234
     107 H         0.0   0.0   0.0 H        1 UNL1     0.0234
     108 H         -2.598671   2.457099   2.08977 H        1 UNL1     0.2098
     109 H         0.787311   1.951288   1.3022 H        1 UNL1     0.0234
     110 H         2.054909   1.964781   0.034992 H        1 UNL1     0.0234
     111 H         2.310817   2.782535   1.536536 H        1 UNL1     0.0234
     112 H         3.810024   3.012575   -2.303449 H        1 UNL1     0.0342
     113 H         2.722471   4.358079   -1.808389 H        1 UNL1     0.0342
     114 H         3.04777   3.019816   -0.703308 H        1 UNL1     0.0342
     115 H         -1.530681   5.939883   -0.463986 H        1 UNL1     0.0234
     116 H         -2.537759   5.557816   -1.864202 H        1 UNL1     0.0234
     117 H         -3.087871   5.310931   -0.193851 H        1 UNL1     0.0234
     118 H         3.056821   3.019906   4.857813 H        1 UNL1     0.0309
     119 H         2.343787   4.351281   3.894961 H        1 UNL1     0.0309
     120 H         3.006675   4.623949   5.491329 H        1 UNL1     0.0309
     121 H         -0.719269   4.739987   -0.706984 H        1 UNL1     0.0524
     122 H         -2.319341   5.299957   -0.203932 H        1 UNL1     0.0524
     123 H         -1.064023   6.489244   -0.632321 H        1 UNL1     0.0524
@<TRIPOS>BOND
     1     1     2    1
     2     1    42    1
     3     2     3    2
     4     3     4    1
     5     4     5    2
     6     5     7    1
     7     6    75    1
     8     6    76    1
     9     6    77    1
    10     7     9   am
    11     9    10    1
    12    10    11    2
    13    10    43    1
    14    11    14    1
    15    11    15    1
    16    12    13   ar
    17    12    27   ar
    18    12    43    1
    19    13    14    1
    20    13    30   ar
    21    14    17    2
    22    15    16    1
    23    16    17    1
    24    16    18    1
    25    16    22    1
    26    18    19    1
    27    19    20    1
    28    20    21    1
    29    21    22    1
    30    23    24    1
    31    23    88    1
    32    23    89    1
    33    24    25    1
    34    24    26    1
    35    24    90    1
    36    25    91    1
    37    25    92    1
    38    25    93    1
    39    26    94    1
    40    26    95    1
    41    26    96    1
    42    27    28   ar
    43    28    29   ar
    44    29    30   ar
    45    29    31    1
    46    30    33    1
    47    31    32    1
    48    32    33    1
    49    32    35    1
    50    34    97    1
    51    34    98    1
    52    34    99    1
    53    35    61    1
    54    36    37    1
    55    36    60    1
    56    37    38    1
    57    38    39    1
    58    39    40    1
    59    40    41    1
    60    41    42    1
    61    45   100    1
    62    47   101    1
    63    47   102    1
    64    47   103    1
    65    48   104    1
    66    49   105    1
    67    49   106    1
    68    49   107    1
    69    50   108    1
    70    51    59    1
    71    52   109    1
    72    52   110    1
    73    52   111    1
    74    53    54    1
    75    54    55    2
    76    54    56    1
    77    56   112    1
    78    56   113    1
    79    56   114    1
    80    57   115    1
    81    57   116    1
    82    57   117    1
    83    58   118    1
    84    58   119    1
    85    58   120    1
    86    59   121    1
    87    59   122    1
    88    59   123    1
    89    60    61    2
    90     1    47    1
    91     1    62    1
    92     2    63    1
    93     3    64    1
    94     4    65    1
    95     5     6    1
    96     7     8    2
    97     9    78    1
    98    15    79    1
    99    18    80    1
   100    18    81    1
   101    19    82    1
   102    19    83    1
   103    20    23    1
   104    21    84    1
   105    21    85    1
   106    22    86    1
   107    22    87    1
   108    27    45    1
   109    28    34    1
   110    32    58    1
   111    33    46    2
   112    36    51    1
   113    36    66    1
   114    37    52    1
   115    37    67    1
   116    38    53    1
   117    38    68    1
   118    42    48    1
   119    42    72    1
   120    43    44    2
   121    60    73    1
   122    61    74    1
   123    39    69    1
   124    39    57    1
   125    40    70    1
   126    40    50    1
   127    41    71    1
   128    41    49    1
