@<TRIPOS>MOLECULE
*****
 123 128 0 0 0
SMALL
GASTEIGER

@<TRIPOS>ATOM
     1 C         4.303544   -1.211963   -2.924944 C.3        1 UNL1     0.0009
     2 C         4.931078   -2.10105   -4.425864 C.2        1 UNL1     -0.0787
     3 C         5.451346   -3.2993   -5.050014 C.2        1 UNL1     -0.0649
     4 C         5.77234   -3.562217   -6.691415 C.2        1 UNL1     -0.0542
     5 C         5.966707   -4.544501   -7.693621 C.2        1 UNL1     0.0115
     6 C         6.177453   -6.06378   -7.939995 C.3        1 UNL1     -0.0348
     7 C         5.82668   -4.11966   -9.235338 C.2        1 UNL1     0.2441
     8 O         6.79122   -3.926312   -9.962528 O.2        1 UNL1     -0.2702
     9 N         4.529388   -4.238652   -9.763567 N.am        1 UNL1     -0.2772
     10 C         3.815677   -3.081927   -9.549258 C.2        1 UNL1     0.1049
     11 C         3.250274   -2.958367   -8.36213 C.2        1 UNL1     0.0801
     12 C         3.950169   -0.595393   -9.786733 C.ar        1 UNL1     0.0753
     13 C         3.531633   -0.520782   -8.420033 C.ar        1 UNL1     0.0305
     14 C         3.041708   -1.696836   -7.704546 C.2        1 UNL1     0.0924
     15 N         3.076904   -3.869038   -7.388915 N.pl3        1 UNL1     -0.3170
     16 C         2.252616   -3.273081   -6.371251 C.3        1 UNL1     0.1275
     17 N         2.525963   -1.792995   -6.482381 N.2        1 UNL1     -0.2557
     18 C         0.799833   -3.468355   -6.794325 C.3        1 UNL1     0.0016
     19 C         0.55235   -4.952398   -7.013316 C.3        1 UNL1     0.0026
     20 N         0.837005   -5.662003   -5.773776 N.3        1 UNL1     -0.3018
     21 C         2.194351   -5.484844   -5.253586 C.3        1 UNL1     0.0026
     22 C         2.419745   -3.987506   -5.03663 C.3        1 UNL1     0.0016
     23 C         0.351897   -7.027745   -5.781638 C.3        1 UNL1     0.0012
     24 C         -0.324496   -7.351362   -7.123101 C.3        1 UNL1     -0.0339
     25 C         -0.122661   -8.824712   -7.513687 C.3        1 UNL1     -0.0615
     26 C         -1.797342   -6.985056   -7.065443 C.3        1 UNL1     -0.0615
     27 C         4.300956   0.549861   -10.49769 C.ar        1 UNL1     0.1347
     28 C         4.235012   1.824116   -9.962922 C.ar        1 UNL1     0.0342
     29 C         3.86729   1.868593   -8.601318 C.ar        1 UNL1     0.1435
     30 C         3.548009   0.726363   -7.866069 C.ar        1 UNL1     0.0774
     31 O         3.651666   3.041971   -7.967521 O.3        1 UNL1     -0.4436
     32 C         2.866314   2.693909   -6.817327 C.3        1 UNL1     0.3143
     33 C         3.161832   1.229376   -6.564296 C.2        1 UNL1     0.2504
     34 C         4.351655   3.110357   -10.732389 C.3        1 UNL1     -0.0327
     35 O         3.394756   3.424597   -5.70373 O.2        1 UNL1     -0.4528
     36 C         0.463492   4.026067   -3.368347 C.3        1 UNL1     0.0854
     37 C         -0.501612   2.978791   -2.690623 C.3        1 UNL1     0.0236
     38 C         -0.596641   3.082324   -1.093127 C.3        1 UNL1     0.1131
     39 C         0.727377   3.109664   -0.227969 C.3        1 UNL1     0.0200
     40 C         1.985074   2.070369   -0.575101 C.3        1 UNL1     0.0661
     41 C         1.854898   0.394647   -0.804492 C.3        1 UNL1     0.0091
     42 C         2.817422   -0.737535   -1.880185 C.3        1 UNL1     0.0661
     43 C         3.912585   -1.92288   -10.449021 C.2        1 UNL1     0.2131
     44 O         3.857362   -2.071388   -11.656346 O.2        1 UNL1     -0.2851
     45 O         4.741004   0.385328   -11.809453 O.3        1 UNL1     -0.5056
     46 O         3.111479   0.620108   -5.519255 O.2        1 UNL1     -0.2836
     47 C         5.480989   -0.853782   -1.978736 C.3        1 UNL1     -0.0566
     48 O         3.03514   -1.747282   -0.816171 O.3        1 UNL1     -0.3909
     49 C         0.395843   0.038362   -0.982576 C.3        1 UNL1     -0.0577
     50 O         2.839687   2.627044   -1.553605 O.3        1 UNL1     -0.3910
     51 O         1.248687   4.799242   -2.489086 O.3        1 UNL1     -0.3753
     52 C         -0.482908   1.60374   -3.434823 C.3        1 UNL1     -0.0564
     53 O         -1.759762   2.333656   -0.510913 O.3        1 UNL1     -0.4608
     54 C         -2.343745   2.590245   0.701957 C.2        1 UNL1     0.3042
     55 O         -2.889081   1.783409   1.45393 O.2        1 UNL1     -0.2512
     56 C         -2.225515   4.023815   1.135097 C.3        1 UNL1     0.0332
     57 C         1.084426   4.642095   0.058994 C.3        1 UNL1     -0.0567
     58 C         1.385434   2.838451   -7.238791 C.3        1 UNL1     0.0210
     59 C         0.803732   4.802314   -1.133404 C.3        1 UNL1     0.0372
     60 C         1.390022   3.460368   -4.386527 C.2        1 UNL1     -0.0208
     61 C         2.692914   3.669134   -4.580518 C.2        1 UNL1     0.0882
     62 H         4.122622   -0.327747   -3.547954 H        1 UNL1     0.0365
     63 H         4.927977   -1.291175   -5.158369 H        1 UNL1     0.0576
     64 H         5.533962   -4.240526   -4.501948 H        1 UNL1     0.0615
     65 H         5.742814   -2.559603   -7.126589 H        1 UNL1     0.0622
     66 H         -0.206077   4.705303   -3.914571 H        1 UNL1     0.0645
     67 H         -1.510603   3.309585   -2.992405 H        1 UNL1     0.0362
     68 H         -1.027267   4.090942   -0.999457 H        1 UNL1     0.0741
     69 H         0.481187   2.851195   0.793301 H        1 UNL1     0.0359
     70 H         2.559427   2.144322   0.368143 H        1 UNL1     0.0600
     71 H         2.039506   0.043086   0.229569 H        1 UNL1     0.0348
     72 H         3.43235   0.166799   -1.764604 H        1 UNL1     0.0602
     73 H         0.831052   2.90075   -5.094785 H        1 UNL1     0.0628
     74 H         3.347251   4.181221   -3.874226 H        1 UNL1     0.1022
     75 H         6.052306   -6.306386   -9.022822 H        1 UNL1     0.0279
     76 H         7.16836   -6.457287   -7.724765 H        1 UNL1     0.0279
     77 H         5.388369   -6.68157   -7.486803 H        1 UNL1     0.0279
     78 H         4.036355   -4.994489   -9.29271 H        1 UNL1     0.1553
     79 H         3.124621   -4.860124   -7.538597 H        1 UNL1     0.1484
     80 H         0.142987   -3.063491   -6.014964 H        1 UNL1     0.0317
     81 H         0.58059   -2.909544   -7.710466 H        1 UNL1     0.0317
     82 H         1.156216   -5.347719   -7.843364 H        1 UNL1     0.0428
     83 H         -0.488733   -5.068858   -7.316028 H        1 UNL1     0.0428
     84 H         2.357667   -5.962219   -4.282375 H        1 UNL1     0.0428
     85 H         2.94643   -5.947014   -5.907874 H        1 UNL1     0.0428
     86 H         3.365821   -3.906919   -4.534202 H        1 UNL1     0.0317
     87 H         1.706128   -3.604458   -4.296954 H        1 UNL1     0.0317
     88 H         1.212953   -7.696767   -5.654023 H        1 UNL1     0.0429
     89 H         -0.32783   -7.214325   -4.940251 H        1 UNL1     0.0429
     90 H         0.110813   -6.71966   -7.906473 H        1 UNL1     0.0308
     91 H         -0.871027   -9.467664   -7.040755 H        1 UNL1     0.0233
     92 H         -0.17759   -8.94795   -8.597848 H        1 UNL1     0.0233
     93 H         0.860495   -9.20582   -7.212032 H        1 UNL1     0.0233
     94 H         -1.914069   -5.897469   -7.007442 H        1 UNL1     0.0233
     95 H         -2.30404   -7.33068   -7.970851 H        1 UNL1     0.0233
     96 H         -2.285912   -7.43195   -6.195067 H        1 UNL1     0.0233
     97 H         3.81334   3.922364   -10.25271 H        1 UNL1     0.0280
     98 H         5.392568   3.448764   -10.817448 H        1 UNL1     0.0280
     99 H         3.939122   2.973128   -11.745345 H        1 UNL1     0.0280
     100 H         5.631749   0.649235   -11.959618 H        1 UNL1     0.2922
     101 H         6.352409   -1.457484   -2.231374 H        1 UNL1     0.0236
     102 H         5.221685   -0.931417   -0.923408 H        1 UNL1     0.0236
     103 H         5.815299   0.188908   -2.109996 H        1 UNL1     0.0236
     104 H         3.982226   -1.987859   -0.827187 H        1 UNL1     0.2098
     105 H         -0.179614   0.769506   -1.544794 H        1 UNL1     0.0234
     106 H         0.215993   -0.963847   -1.371367 H        1 UNL1     0.0234
     107 H         0.0   -0.0   0.0 H        1 UNL1     0.0234
     108 H         3.635397   2.062621   -1.598779 H        1 UNL1     0.2098
     109 H         -1.24372   1.548519   -4.225916 H        1 UNL1     0.0234
     110 H         0.498417   1.353507   -3.852109 H        1 UNL1     0.0234
     111 H         -0.702274   0.771431   -2.752849 H        1 UNL1     0.0234
     112 H         -1.170688   4.294594   1.241702 H        1 UNL1     0.0342
     113 H         -2.735735   4.701395   0.452159 H        1 UNL1     0.0342
     114 H         -2.700384   4.124707   2.120737 H        1 UNL1     0.0342
     115 H         2.044135   4.746501   0.583631 H        1 UNL1     0.0234
     116 H         1.131472   5.262491   -0.838193 H        1 UNL1     0.0234
     117 H         0.397251   5.127621   0.773134 H        1 UNL1     0.0234
     118 H         1.15071   2.244091   -8.13915 H        1 UNL1     0.0309
     119 H         0.68396   2.573006   -6.441498 H        1 UNL1     0.0309
     120 H         1.131463   3.86122   -7.538039 H        1 UNL1     0.0309
     121 H         1.687666   4.813787   -0.496314 H        1 UNL1     0.0524
     122 H         0.207923   5.697928   -0.890661 H        1 UNL1     0.0524
     123 H         0.207616   3.916896   -0.931476 H        1 UNL1     0.0524
@<TRIPOS>BOND
     1     1     2    1
     2     1    42    1
     3     2     3    2
     4     3     4    1
     5     4     5    2
     6     5     7    1
     7     6    75    1
     8     6    76    1
     9     6    77    1
    10     7     9   am
    11     9    10    1
    12    10    11    2
    13    10    43    1
    14    11    14    1
    15    11    15    1
    16    12    13   ar
    17    12    27   ar
    18    12    43    1
    19    13    14    1
    20    13    30   ar
    21    14    17    2
    22    15    16    1
    23    16    17    1
    24    16    18    1
    25    16    22    1
    26    18    19    1
    27    19    20    1
    28    20    21    1
    29    21    22    1
    30    23    24    1
    31    23    88    1
    32    23    89    1
    33    24    25    1
    34    24    26    1
    35    24    90    1
    36    25    91    1
    37    25    92    1
    38    25    93    1
    39    26    94    1
    40    26    95    1
    41    26    96    1
    42    27    28   ar
    43    28    29   ar
    44    29    30   ar
    45    29    31    1
    46    30    33    1
    47    31    32    1
    48    32    33    1
    49    32    35    1
    50    34    97    1
    51    34    98    1
    52    34    99    1
    53    35    61    1
    54    36    37    1
    55    36    60    1
    56    37    38    1
    57    38    39    1
    58    39    40    1
    59    40    41    1
    60    41    42    1
    61    45   100    1
    62    47   101    1
    63    47   102    1
    64    47   103    1
    65    48   104    1
    66    49   105    1
    67    49   106    1
    68    49   107    1
    69    50   108    1
    70    51    59    1
    71    52   109    1
    72    52   110    1
    73    52   111    1
    74    53    54    1
    75    54    55    2
    76    54    56    1
    77    56   112    1
    78    56   113    1
    79    56   114    1
    80    57   115    1
    81    57   116    1
    82    57   117    1
    83    58   118    1
    84    58   119    1
    85    58   120    1
    86    59   121    1
    87    59   122    1
    88    59   123    1
    89    60    61    2
    90     1    47    1
    91     1    62    1
    92     2    63    1
    93     3    64    1
    94     4    65    1
    95     5     6    1
    96     7     8    2
    97     9    78    1
    98    15    79    1
    99    18    80    1
   100    18    81    1
   101    19    82    1
   102    19    83    1
   103    20    23    1
   104    21    84    1
   105    21    85    1
   106    22    86    1
   107    22    87    1
   108    27    45    1
   109    28    34    1
   110    32    58    1
   111    33    46    2
   112    36    51    1
   113    36    66    1
   114    37    52    1
   115    37    67    1
   116    38    53    1
   117    38    68    1
   118    42    48    1
   119    42    72    1
   120    43    44    2
   121    60    73    1
   122    61    74    1
   123    39    69    1
   124    39    57    1
   125    40    70    1
   126    40    50    1
   127    41    71    1
   128    41    49    1
