@<TRIPOS>MOLECULE
*****
 123 128 0 0 0
SMALL
GASTEIGER

@<TRIPOS>ATOM
     1 C         -1.268107   2.502446   3.027916 C.3        1 UNL1     0.0009
     2 C         -2.904086   2.498528   3.900037 C.2        1 UNL1     -0.0787
     3 C         -4.256633   2.99693   4.035167 C.2        1 UNL1     -0.0649
     4 C         -5.464476   2.455613   5.090842 C.2        1 UNL1     -0.0542
     5 C         -6.858412   2.424275   5.341916 C.2        1 UNL1     0.0115
     6 C         -8.228425   3.007603   4.899066 C.3        1 UNL1     -0.0348
     7 C         -7.438649   1.334574   6.368007 C.2        1 UNL1     0.2441
     8 O         -7.758907   1.606653   7.516891 O.2        1 UNL1     -0.2702
     9 N         -7.799169   0.108157   5.783134 N.am        1 UNL1     -0.2772
     10 C         -6.718067   -0.74222   5.745711 C.2        1 UNL1     0.1049
     11 C         -5.884466   -0.579719   4.734313 C.2        1 UNL1     0.0801
     12 C         -4.879378   -1.676531   7.161203 C.ar        1 UNL1     0.0753
     13 C         -3.982954   -1.288047   6.115205 C.ar        1 UNL1     0.0305
     14 C         -4.473684   -0.846333   4.811701 C.2        1 UNL1     0.0924
     15 N         -6.021086   0.144039   3.610019 N.pl3        1 UNL1     -0.3170
     16 C         -4.901489   -0.153979   2.756823 C.3        1 UNL1     0.1275
     17 N         -3.796569   -0.54694   3.7068 N.2        1 UNL1     -0.2557
     18 C         -5.253668   -1.414249   1.972355 C.3        1 UNL1     0.0016
     19 C         -6.56089   -1.177461   1.23297 C.3        1 UNL1     0.0026
     20 N         -6.395246   -0.035979   0.343808 N.3        1 UNL1     -0.3018
     21 C         -5.995466   1.210512   1.000166 C.3        1 UNL1     0.0026
     22 C         -4.677965   0.950978   1.732784 C.3        1 UNL1     0.0016
     23 C         -7.47181   0.09029   -0.61833 C.3        1 UNL1     0.0012
     24 C         -7.700494   1.56629   -0.98011 C.3        1 UNL1     -0.0339
     25 C         -9.185941   1.854898   -1.252527 C.3        1 UNL1     -0.0615
     26 C         -7.148596   2.462434   0.11493 C.3        1 UNL1     -0.0615
     27 C         -4.405007   -2.210331   8.357091 C.ar        1 UNL1     0.1347
     28 C         -3.063432   -2.439125   8.605846 C.ar        1 UNL1     0.0342
     29 C         -2.19616   -2.003731   7.581426 C.ar        1 UNL1     0.1435
     30 C         -2.654788   -1.434039   6.393011 C.ar        1 UNL1     0.0774
     31 O         -0.869801   -2.256258   7.626239 O.3        1 UNL1     -0.4436
     32 C         -0.426414   -2.108388   6.268883 C.3        1 UNL1     0.3143
     33 C         -1.456355   -1.212438   5.611078 C.2        1 UNL1     0.2504
     34 C         -2.502233   -3.233893   9.751927 C.3        1 UNL1     -0.0327
     35 O         0.804644   -1.375748   6.300308 O.2        1 UNL1     -0.4528
     36 C         2.803154   -2.569939   3.302317 C.3        1 UNL1     0.0854
     37 C         2.411526   -2.556831   1.77458 C.3        1 UNL1     0.0236
     38 C         3.456708   -1.809037   0.815339 C.3        1 UNL1     0.1131
     39 C         3.945142   -0.347857   1.174025 C.3        1 UNL1     0.0200
     40 C         2.856531   0.801819   1.699011 C.3        1 UNL1     0.0661
     41 C         1.38527   1.192277   0.950316 C.3        1 UNL1     0.0091
     42 C         -0.203045   1.760258   1.671466 C.3        1 UNL1     0.0661
     43 C         -6.335896   -1.575463   6.895495 C.2        1 UNL1     0.2131
     44 O         -7.176889   -2.211513   7.504519 O.2        1 UNL1     -0.2851
     45 O         -5.341158   -2.520084   9.341527 O.3        1 UNL1     -0.5056
     46 O         -1.31396   -0.466773   4.667913 O.2        1 UNL1     -0.2836
     47 C         -0.460894   3.774773   3.401511 C.3        1 UNL1     -0.0566
     48 O         -0.379869   2.866316   0.699619 O.3        1 UNL1     -0.3909
     49 C         1.051728   0.117666   -0.060354 C.3        1 UNL1     -0.0577
     50 O         2.680093   0.722541   3.099121 O.3        1 UNL1     -0.3910
     51 O         3.917325   -1.783481   3.659442 O.3        1 UNL1     -0.3753
     52 C         0.865615   -2.439571   1.571216 C.3        1 UNL1     -0.0564
     53 O         3.254195   -2.106925   -0.641567 O.3        1 UNL1     -0.4608
     54 C         2.731058   -1.24016   -1.565134 C.2        1 UNL1     0.3042
     55 O         3.246274   -0.872691   -2.620291 O.2        1 UNL1     -0.2512
     56 C         1.348784   -0.760609   -1.224454 C.3        1 UNL1     0.0332
     57 C         5.327459   -0.482537   1.967268 C.3        1 UNL1     -0.0567
     58 C         -0.505024   -3.513384   5.627528 C.3        1 UNL1     0.0210
     59 C         4.217123   -1.767179   5.054333 C.3        1 UNL1     0.0372
     60 C         1.70336   -2.205532   4.236566 C.2        1 UNL1     -0.0208
     61 C         1.70196   -1.395524   5.296107 C.2        1 UNL1     0.0882
     62 H         -0.928381   1.707082   3.702226 H        1 UNL1     0.0365
     63 H         -2.696528   1.806726   4.719061 H        1 UNL1     0.0576
     64 H         -4.682975   3.698154   3.314317 H        1 UNL1     0.0615
     65 H         -4.92345   1.832932   5.808506 H        1 UNL1     0.0622
     66 H         3.044616   -3.620619   3.516357 H        1 UNL1     0.0645
     67 H         2.534791   -3.606898   1.457208 H        1 UNL1     0.0362
     68 H         4.335839   -2.454843   0.962264 H        1 UNL1     0.0741
     69 H         4.361312   0.107915   0.285497 H        1 UNL1     0.0359
     70 H         3.458852   1.717969   1.54756 H        1 UNL1     0.0600
     71 H         1.717627   2.016459   0.28909 H        1 UNL1     0.0348
     72 H         0.564376   1.959211   2.433566 H        1 UNL1     0.0602
     73 H         0.853439   -2.806246   4.026742 H        1 UNL1     0.0628
     74 H         2.508938   -0.705989   5.546237 H        1 UNL1     0.1022
     75 H         -9.064207   2.356214   5.25148 H        1 UNL1     0.0279
     76 H         -8.498285   3.977818   5.310074 H        1 UNL1     0.0279
     77 H         -8.372466   2.974432   3.809179 H        1 UNL1     0.0279
     78 H         -8.100863   0.262514   4.823326 H        1 UNL1     0.1553
     79 H         -6.904609   0.462255   3.256384 H        1 UNL1     0.1484
     80 H         -4.436403   -1.643085   1.277748 H        1 UNL1     0.0317
     81 H         -5.348306   -2.277202   2.640193 H        1 UNL1     0.0317
     82 H         -7.398844   -1.019611   1.927829 H        1 UNL1     0.0428
     83 H         -6.79423   -2.088917   0.681744 H        1 UNL1     0.0428
     84 H         -5.800496   2.03075   0.302307 H        1 UNL1     0.0428
     85 H         -6.787239   1.599864   1.655008 H        1 UNL1     0.0428
     86 H         -4.349657   1.910573   2.086873 H        1 UNL1     0.0317
     87 H         -3.89969   0.665646   1.014474 H        1 UNL1     0.0317
     88 H         -7.182133   -0.451701   -1.52807 H        1 UNL1     0.0429
     89 H         -8.394614   -0.374062   -0.247407 H        1 UNL1     0.0429
     90 H         -7.126602   1.807984   -1.882577 H        1 UNL1     0.0308
     91 H         -9.824934   1.411032   -0.48326 H        1 UNL1     0.0233
     92 H         -9.369112   2.931168   -1.293758 H        1 UNL1     0.0233
     93 H         -9.520093   1.450722   -2.215761 H        1 UNL1     0.0233
     94 H         -7.132737   1.925983   1.069815 H        1 UNL1     0.0233
     95 H         -6.122528   2.755766   -0.12403 H        1 UNL1     0.0233
     96 H         -7.754684   3.364705   0.23548 H        1 UNL1     0.0233
     97 H         -1.791064   -2.658566   10.337133 H        1 UNL1     0.0280
     98 H         -3.282248   -3.552723   10.455617 H        1 UNL1     0.0280
     99 H         -1.987284   -4.127947   9.363868 H        1 UNL1     0.0280
     100 H         -4.999519   -2.52705   10.218372 H        1 UNL1     0.2922
     101 H         0.59277   3.52121   3.516206 H        1 UNL1     0.0236
     102 H         -0.85493   4.290893   4.276347 H        1 UNL1     0.0236
     103 H         -0.481274   4.529134   2.597324 H        1 UNL1     0.0236
     104 H         -0.568188   3.678949   1.208671 H        1 UNL1     0.2098
     105 H         1.299398   0.374496   -1.087247 H        1 UNL1     0.0234
     106 H         1.435551   -0.872622   0.184466 H        1 UNL1     0.0234
     107 H         0.0   -0.0   0.0 H        1 UNL1     0.0234
     108 H         1.744063   0.929402   3.285732 H        1 UNL1     0.2098
     109 H         0.360968   -3.412797   1.647864 H        1 UNL1     0.0234
     110 H         0.394111   -1.72733   2.256884 H        1 UNL1     0.0234
     111 H         0.616755   -2.053451   0.573757 H        1 UNL1     0.0234
     112 H         1.101596   0.119712   -1.825519 H        1 UNL1     0.0342
     113 H         0.601334   -1.542401   -1.350802 H        1 UNL1     0.0342
     114 H         1.340661   -0.459973   -0.167705 H        1 UNL1     0.0342
     115 H         5.97779   -1.250926   1.527 H        1 UNL1     0.0234
     116 H         5.902252   0.444327   2.018119 H        1 UNL1     0.0234
     117 H         5.209241   -0.866779   2.995045 H        1 UNL1     0.0234
     118 H         -0.590869   -3.462979   4.527939 H        1 UNL1     0.0309
     119 H         0.342196   -4.154224   5.891622 H        1 UNL1     0.0309
     120 H         -1.404935   -4.06206   5.926227 H        1 UNL1     0.0309
     121 H         5.15659   -1.230427   5.183386 H        1 UNL1     0.0524
     122 H         3.44862   -1.237125   5.641259 H        1 UNL1     0.0524
     123 H         4.310474   -2.781977   5.430585 H        1 UNL1     0.0524
@<TRIPOS>BOND
     1     1     2    1
     2     1    42    1
     3     2     3    2
     4     3     4    1
     5     4     5    2
     6     5     7    1
     7     6    75    1
     8     6    76    1
     9     6    77    1
    10     7     9   am
    11     9    10    1
    12    10    11    2
    13    10    43    1
    14    11    14    1
    15    11    15    1
    16    12    13   ar
    17    12    27   ar
    18    12    43    1
    19    13    14    1
    20    13    30   ar
    21    14    17    2
    22    15    16    1
    23    16    17    1
    24    16    18    1
    25    16    22    1
    26    18    19    1
    27    19    20    1
    28    20    21    1
    29    21    22    1
    30    23    24    1
    31    23    88    1
    32    23    89    1
    33    24    25    1
    34    24    26    1
    35    24    90    1
    36    25    91    1
    37    25    92    1
    38    25    93    1
    39    26    94    1
    40    26    95    1
    41    26    96    1
    42    27    28   ar
    43    28    29   ar
    44    29    30   ar
    45    29    31    1
    46    30    33    1
    47    31    32    1
    48    32    33    1
    49    32    35    1
    50    34    97    1
    51    34    98    1
    52    34    99    1
    53    35    61    1
    54    36    37    1
    55    36    60    1
    56    37    38    1
    57    38    39    1
    58    39    40    1
    59    40    41    1
    60    41    42    1
    61    45   100    1
    62    47   101    1
    63    47   102    1
    64    47   103    1
    65    48   104    1
    66    49   105    1
    67    49   106    1
    68    49   107    1
    69    50   108    1
    70    51    59    1
    71    52   109    1
    72    52   110    1
    73    52   111    1
    74    53    54    1
    75    54    55    2
    76    54    56    1
    77    56   112    1
    78    56   113    1
    79    56   114    1
    80    57   115    1
    81    57   116    1
    82    57   117    1
    83    58   118    1
    84    58   119    1
    85    58   120    1
    86    59   121    1
    87    59   122    1
    88    59   123    1
    89    60    61    2
    90     1    47    1
    91     1    62    1
    92     2    63    1
    93     3    64    1
    94     4    65    1
    95     5     6    1
    96     7     8    2
    97     9    78    1
    98    15    79    1
    99    18    80    1
   100    18    81    1
   101    19    82    1
   102    19    83    1
   103    20    23    1
   104    21    84    1
   105    21    85    1
   106    22    86    1
   107    22    87    1
   108    27    45    1
   109    28    34    1
   110    32    58    1
   111    33    46    2
   112    36    51    1
   113    36    66    1
   114    37    52    1
   115    37    67    1
   116    38    53    1
   117    38    68    1
   118    42    48    1
   119    42    72    1
   120    43    44    2
   121    60    73    1
   122    61    74    1
   123    39    69    1
   124    39    57    1
   125    40    70    1
   126    40    50    1
   127    41    71    1
   128    41    49    1
