@<TRIPOS>MOLECULE
*****
 123 128 0 0 0
SMALL
GASTEIGER

@<TRIPOS>ATOM
     1 C         -0.059897   2.811506   -3.931521 C.3        1 UNL1     0.0009
     2 C         -1.235851   3.901641   -4.861991 C.2        1 UNL1     -0.0787
     3 C         -2.321358   4.060417   -5.806719 C.2        1 UNL1     -0.0649
     4 C         -3.146518   5.481413   -6.214442 C.2        1 UNL1     -0.0542
     5 C         -4.332034   6.014689   -6.77769 C.2        1 UNL1     0.0115
     6 C         -5.625883   5.652862   -7.557662 C.3        1 UNL1     -0.0348
     7 C         -4.703919   7.550496   -6.494869 C.2        1 UNL1     0.2441
     8 O         -4.526488   8.440128   -7.315599 O.2        1 UNL1     -0.2702
     9 N         -5.485414   7.765375   -5.346286 N.am        1 UNL1     -0.2772
     10 C         -4.681166   7.926592   -4.241516 C.2        1 UNL1     0.1049
     11 C         -4.255552   6.817441   -3.664576 C.2        1 UNL1     0.0801
     12 C         -2.677368   9.172929   -3.411595 C.ar        1 UNL1     0.0753
     13 C         -2.162557   7.906407   -2.98792 C.ar        1 UNL1     0.0305
     14 C         -2.994468   6.705177   -2.983078 C.2        1 UNL1     0.0924
     15 N         -4.644437   5.544052   -3.848362 N.pl3        1 UNL1     -0.3170
     16 C         -3.991596   4.737074   -2.851948 C.3        1 UNL1     0.1275
     17 N         -2.718344   5.483301   -2.536199 N.2        1 UNL1     -0.2557
     18 C         -4.844375   4.801051   -1.58847 C.3        1 UNL1     0.0016
     19 C         -6.256502   4.354194   -1.931698 C.3        1 UNL1     0.0026
     20 N         -6.202669   2.997844   -2.459377 N.3        1 UNL1     -0.3018
     21 C         -5.355583   2.823635   -3.641098 C.3        1 UNL1     0.0026
     22 C         -3.941014   3.274123   -3.272382 C.3        1 UNL1     0.0016
     23 C         -7.506965   2.370534   -2.536438 C.3        1 UNL1     0.0012
     24 C         -7.605235   1.484167   -3.788019 C.3        1 UNL1     -0.0339
     25 C         -8.674829   2.003916   -4.76264 C.3        1 UNL1     -0.0615
     26 C         -6.245869   1.374435   -4.456498 C.3        1 UNL1     -0.0615
     27 C         -1.917426   10.334871   -3.299795 C.ar        1 UNL1     0.1347
     28 C         -0.649954   10.361448   -2.745847 C.ar        1 UNL1     0.0342
     29 C         -0.144668   9.095543   -2.380696 C.ar        1 UNL1     0.1435
     30 C         -0.880498   7.918132   -2.520266 C.ar        1 UNL1     0.0774
     31 O         1.030473   8.967672   -1.726709 O.3        1 UNL1     -0.4436
     32 C         0.972448   7.664106   -1.128194 C.3        1 UNL1     0.3143
     33 C         -0.027777   6.889425   -1.962239 C.2        1 UNL1     0.2504
     34 C         0.11973   11.595116   -2.364076 C.3        1 UNL1     -0.0327
     35 O         2.249773   7.0463   -1.32822 O.2        1 UNL1     -0.4528
     36 C         2.751068   4.713347   1.623749 C.3        1 UNL1     0.0854
     37 C         1.843981   3.520917   2.116522 C.3        1 UNL1     0.0236
     38 C         2.596445   2.111444   2.254109 C.3        1 UNL1     0.1131
     39 C         3.458853   1.56078   1.047755 C.3        1 UNL1     0.0200
     40 C         2.883082   1.655433   -0.514925 C.3        1 UNL1     0.0661
     41 C         1.34835   1.159131   -1.040177 C.3        1 UNL1     0.0091
     42 C         0.273743   1.822814   -2.370646 C.3        1 UNL1     0.0661
     43 C         -4.080848   9.222459   -3.891228 C.2        1 UNL1     0.2131
     44 O         -4.751983   10.238395   -3.904929 O.2        1 UNL1     -0.2851
     45 O         -2.475219   11.518959   -3.77754 O.3        1 UNL1     -0.5056
     46 O         -0.092564   5.694071   -2.143309 O.2        1 UNL1     -0.2836
     47 C         1.061224   2.298583   -4.874908 C.3        1 UNL1     -0.0566
     48 O         -0.021382   0.49131   -2.95298 O.3        1 UNL1     -0.3909
     49 C         0.467239   0.936391   0.168759 C.3        1 UNL1     -0.0577
     50 O         3.213328   2.90077   -1.096129 O.3        1 UNL1     -0.3910
     51 O         4.050326   4.365347   1.201543 O.3        1 UNL1     -0.3753
     52 C         0.384787   3.633923   1.56613 C.3        1 UNL1     -0.0564
     53 O         1.826114   1.093977   3.043842 O.3        1 UNL1     -0.4608
     54 C         1.59687   1.142712   4.394028 C.2        1 UNL1     0.3042
     55 O         2.196867   1.817777   5.229568 O.2        1 UNL1     -0.2512
     56 C         0.435688   0.299196   4.837708 C.3        1 UNL1     0.0332
     57 C         4.978991   1.984076   1.308857 C.3        1 UNL1     -0.0567
     58 C         0.392258   7.860208   0.291825 C.3        1 UNL1     0.0210
     59 C         4.252397   2.971912   0.970521 C.3        1 UNL1     0.0372
     60 C         2.158665   5.549767   0.544573 C.2        1 UNL1     -0.0208
     61 C         2.700179   6.021537   -0.579233 C.2        1 UNL1     0.0882
     62 H         0.33715   3.701537   -3.428619 H        1 UNL1     0.0365
     63 H         -0.886497   4.888881   -4.552509 H        1 UNL1     0.0576
     64 H         -2.832698   3.198545   -6.241249 H        1 UNL1     0.0615
     65 H         -2.516371   6.275418   -5.804621 H        1 UNL1     0.0622
     66 H         2.841784   5.371314   2.499475 H        1 UNL1     0.0645
     67 H         1.634823   3.76212   3.173231 H        1 UNL1     0.0362
     68 H         3.323613   2.367066   3.039861 H        1 UNL1     0.0741
     69 H         3.606262   0.497474   1.182141 H        1 UNL1     0.0359
     70 H         3.557423   0.931252   -1.010794 H        1 UNL1     0.0600
     71 H         1.574132   0.116744   -1.339192 H        1 UNL1     0.0348
     72 H         1.287955   2.186876   -2.590073 H        1 UNL1     0.0602
     73 H         1.190053   5.867765   0.84108 H        1 UNL1     0.0628
     74 H         3.661724   5.701537   -0.982059 H        1 UNL1     0.1022
     75 H         -5.545879   5.97929   -8.622593 H        1 UNL1     0.0279
     76 H         -5.854232   4.593767   -7.653808 H        1 UNL1     0.0279
     77 H         -6.500781   6.227478   -7.219919 H        1 UNL1     0.0279
     78 H         -6.077253   6.954391   -5.178627 H        1 UNL1     0.1553
     79 H         -5.514871   5.283456   -4.274233 H        1 UNL1     0.1484
     80 H         -4.396029   4.157913   -0.821576 H        1 UNL1     0.0317
     81 H         -4.858778   5.816044   -1.177091 H        1 UNL1     0.0317
     82 H         -6.737578   5.038135   -2.646333 H        1 UNL1     0.0428
     83 H         -6.847951   4.409164   -1.017249 H        1 UNL1     0.0428
     84 H         -5.269023   1.783123   -3.969203 H        1 UNL1     0.0428
     85 H         -5.7635   3.346573   -4.517144 H        1 UNL1     0.0428
     86 H         -3.324887   3.009538   -4.11165 H        1 UNL1     0.0317
     87 H         -3.547892   2.648531   -2.461712 H        1 UNL1     0.0317
     88 H         -7.634317   1.73719   -1.648772 H        1 UNL1     0.0429
     89 H         -8.310672   3.117812   -2.516332 H        1 UNL1     0.0429
     90 H         -7.873701   0.464859   -3.486107 H        1 UNL1     0.0308
     91 H         -8.428809   1.746702   -5.79725 H        1 UNL1     0.0233
     92 H         -9.6561   1.592666   -4.51447 H        1 UNL1     0.0233
     93 H         -8.781446   3.094731   -4.72276 H        1 UNL1     0.0233
     94 H         -5.721086   2.334537   -4.40509 H        1 UNL1     0.0233
     95 H         -5.634983   0.628301   -3.940684 H        1 UNL1     0.0233
     96 H         -6.340081   1.087963   -5.5077 H        1 UNL1     0.0233
     97 H         0.11765   11.760827   -1.290872 H        1 UNL1     0.0280
     98 H         1.176039   11.530783   -2.656185 H        1 UNL1     0.0280
     99 H         -0.330084   12.476044   -2.850625 H        1 UNL1     0.0280
     100 H         -2.423408   11.6275   -4.710898 H        1 UNL1     0.2922
     101 H         0.799432   2.517273   -5.909943 H        1 UNL1     0.0236
     102 H         1.297741   1.245467   -4.726617 H        1 UNL1     0.0236
     103 H         2.015155   2.826775   -4.709921 H        1 UNL1     0.0236
     104 H         0.337496   -0.1832   -2.343708 H        1 UNL1     0.2098
     105 H         1.005266   0.874682   1.111378 H        1 UNL1     0.0234
     106 H         -0.369668   1.629126   0.256119 H        1 UNL1     0.0234
     107 H         -0.0   0.0   0.0 H        1 UNL1     0.0234
     108 H         2.741187   3.590779   -0.591412 H        1 UNL1     0.2098
     109 H         -0.368013   3.4034   2.332852 H        1 UNL1     0.0234
     110 H         0.167153   4.610753   1.120953 H        1 UNL1     0.0234
     111 H         0.204231   2.922815   0.749018 H        1 UNL1     0.0234
     112 H         -0.396087   0.412218   4.135766 H        1 UNL1     0.0342
     113 H         0.710571   -0.748245   4.952389 H        1 UNL1     0.0342
     114 H         0.10092   0.664761   5.818247 H        1 UNL1     0.0342
     115 H         5.336757   1.638193   2.288426 H        1 UNL1     0.0234
     116 H         5.678029   1.615968   0.555271 H        1 UNL1     0.0234
     117 H         5.12217   3.074337   1.402518 H        1 UNL1     0.0234
     118 H         -0.674235   8.14489   0.268278 H        1 UNL1     0.0309
     119 H         0.513947   6.979944   0.930989 H        1 UNL1     0.0309
     120 H         0.863766   8.691396   0.827468 H        1 UNL1     0.0309
     121 H         3.740835   2.428499   1.764475 H        1 UNL1     0.0524
     122 H         3.822303   2.64026   0.0108 H        1 UNL1     0.0524
     123 H         5.313468   2.739268   0.980526 H        1 UNL1     0.0524
@<TRIPOS>BOND
     1     1     2    1
     2     1    42    1
     3     2     3    2
     4     3     4    1
     5     4     5    2
     6     5     7    1
     7     6    75    1
     8     6    76    1
     9     6    77    1
    10     7     9   am
    11     9    10    1
    12    10    11    2
    13    10    43    1
    14    11    14    1
    15    11    15    1
    16    12    13   ar
    17    12    27   ar
    18    12    43    1
    19    13    14    1
    20    13    30   ar
    21    14    17    2
    22    15    16    1
    23    16    17    1
    24    16    18    1
    25    16    22    1
    26    18    19    1
    27    19    20    1
    28    20    21    1
    29    21    22    1
    30    23    24    1
    31    23    88    1
    32    23    89    1
    33    24    25    1
    34    24    26    1
    35    24    90    1
    36    25    91    1
    37    25    92    1
    38    25    93    1
    39    26    94    1
    40    26    95    1
    41    26    96    1
    42    27    28   ar
    43    28    29   ar
    44    29    30   ar
    45    29    31    1
    46    30    33    1
    47    31    32    1
    48    32    33    1
    49    32    35    1
    50    34    97    1
    51    34    98    1
    52    34    99    1
    53    35    61    1
    54    36    37    1
    55    36    60    1
    56    37    38    1
    57    38    39    1
    58    39    40    1
    59    40    41    1
    60    41    42    1
    61    45   100    1
    62    47   101    1
    63    47   102    1
    64    47   103    1
    65    48   104    1
    66    49   105    1
    67    49   106    1
    68    49   107    1
    69    50   108    1
    70    51    59    1
    71    52   109    1
    72    52   110    1
    73    52   111    1
    74    53    54    1
    75    54    55    2
    76    54    56    1
    77    56   112    1
    78    56   113    1
    79    56   114    1
    80    57   115    1
    81    57   116    1
    82    57   117    1
    83    58   118    1
    84    58   119    1
    85    58   120    1
    86    59   121    1
    87    59   122    1
    88    59   123    1
    89    60    61    2
    90     1    47    1
    91     1    62    1
    92     2    63    1
    93     3    64    1
    94     4    65    1
    95     5     6    1
    96     7     8    2
    97     9    78    1
    98    15    79    1
    99    18    80    1
   100    18    81    1
   101    19    82    1
   102    19    83    1
   103    20    23    1
   104    21    84    1
   105    21    85    1
   106    22    86    1
   107    22    87    1
   108    27    45    1
   109    28    34    1
   110    32    58    1
   111    33    46    2
   112    36    51    1
   113    36    66    1
   114    37    52    1
   115    37    67    1
   116    38    53    1
   117    38    68    1
   118    42    48    1
   119    42    72    1
   120    43    44    2
   121    60    73    1
   122    61    74    1
   123    39    69    1
   124    39    57    1
   125    40    70    1
   126    40    50    1
   127    41    71    1
   128    41    49    1
