@<TRIPOS>MOLECULE
*****
 123 128 0 0 0
SMALL
GASTEIGER

@<TRIPOS>ATOM
     1 C         5.134191   1.8323   0.542693 C.3        1 UNL1     0.0009
     2 C         6.5508   2.695058   -0.2855 C.2        1 UNL1     -0.0787
     3 C         7.836909   2.645954   -0.948492 C.2        1 UNL1     -0.0649
     4 C         8.682432   3.920181   -1.674985 C.2        1 UNL1     -0.0542
     5 C         9.696895   4.260225   -2.603593 C.2        1 UNL1     0.0115
     6 C         10.844457   3.684156   -3.477989 C.3        1 UNL1     -0.0348
     7 C         9.753345   5.757911   -3.178693 C.2        1 UNL1     0.2441
     8 O         10.553221   6.593709   -2.780995 O.2        1 UNL1     -0.2702
     9 N         9.001292   5.968737   -4.347504 N.am        1 UNL1     -0.2772
     10 C         7.707501   6.313512   -4.030395 C.2        1 UNL1     0.1049
     11 C         6.887803   5.313415   -3.761837 C.2        1 UNL1     0.0801
     12 C         6.361229   7.854133   -2.591168 C.ar        1 UNL1     0.0753
     13 C         5.632047   6.696743   -2.170039 C.ar        1 UNL1     0.0305
     14 C         5.786723   5.408532   -2.842081 C.2        1 UNL1     0.0924
     15 N         7.047325   3.991914   -3.948155 N.pl3        1 UNL1     -0.3170
     16 C         5.793434   3.351767   -3.651132 C.3        1 UNL1     0.1275
     17 N         5.128086   4.268497   -2.653814 N.2        1 UNL1     -0.2557
     18 C         4.943134   3.413923   -4.91637 C.3        1 UNL1     0.0016
     19 C         5.71993   2.77453   -6.056262 C.3        1 UNL1     0.0026
     20 N         6.026607   1.396561   -5.698245 N.3        1 UNL1     -0.3018
     21 C         6.790304   1.231202   -4.459782 C.3        1 UNL1     0.0026
     22 C         5.9895   1.876525   -3.327455 C.3        1 UNL1     0.0016
     23 C         6.496806   0.612912   -6.823168 C.3        1 UNL1     0.0012
     24 C         5.351634   0.352526   -7.814397 C.3        1 UNL1     -0.0339
     25 C         5.70043   0.861113   -9.22285 C.3        1 UNL1     -0.0615
     26 C         4.997863   -1.124468   -7.825109 C.3        1 UNL1     -0.0615
     27 C         6.120223   9.104174   -2.025984 C.ar        1 UNL1     0.1347
     28 C         5.151215   9.327212   -1.064044 C.ar        1 UNL1     0.0342
     29 C         4.479647   8.164595   -0.6299 C.ar        1 UNL1     0.1435
     30 C         4.73572   6.899918   -1.161163 C.ar        1 UNL1     0.0774
     31 O         3.433342   8.231734   0.222006 O.3        1 UNL1     -0.4436
     32 C         2.746197   6.982872   0.051571 C.3        1 UNL1     0.3143
     33 C         3.787974   6.029229   -0.497502 C.2        1 UNL1     0.2504
     34 C         4.665725   10.67105   -0.596604 C.3        1 UNL1     -0.0327
     35 O         2.393682   6.509004   1.357111 O.2        1 UNL1     -0.4528
     36 C         -0.793909   4.497515   0.908487 C.3        1 UNL1     0.0854
     37 C         -1.061787   3.248109   -0.016039 C.3        1 UNL1     0.0236
     38 C         -1.629906   1.954884   0.743272 C.3        1 UNL1     0.1131
     39 C         -0.893807   1.416885   2.035938 C.3        1 UNL1     0.0200
     40 C         0.770621   1.316028   2.080056 C.3        1 UNL1     0.0661
     41 C         1.754266   0.598376   0.898942 C.3        1 UNL1     0.0091
     42 C         3.452966   1.019256   0.348779 C.3        1 UNL1     0.0661
     43 C         7.320009   7.696018   -3.712774 C.2        1 UNL1     0.2131
     44 O         7.697279   8.619546   -4.410986 O.2        1 UNL1     -0.2851
     45 O         6.905171   10.170493   -2.459871 O.3        1 UNL1     -0.5056
     46 O         3.836581   4.82411   -0.391776 O.2        1 UNL1     -0.2836
     47 C         5.537824   1.383825   1.973054 C.3        1 UNL1     -0.0566
     48 O         3.939826   -0.380447   0.40276 O.3        1 UNL1     -0.3909
     49 C         0.930538   0.369044   -0.348605 C.3        1 UNL1     -0.0577
     50 O         1.335986   2.541373   2.500313 O.3        1 UNL1     -0.3910
     51 O         -0.916965   4.275439   2.2952 O.3        1 UNL1     -0.3753
     52 C         -0.009833   3.140435   -1.167885 C.3        1 UNL1     -0.0564
     53 O         -2.201046   0.918856   -0.180184 O.3        1 UNL1     -0.4608
     54 C         -2.369092   -0.407682   0.119793 C.2        1 UNL1     0.3042
     55 O         -1.667424   -1.350476   -0.244406 O.2        1 UNL1     -0.2512
     56 C         -3.522425   -0.67365   1.044887 C.3        1 UNL1     0.0332
     57 C         -1.636737   2.039358   3.308242 C.3        1 UNL1     -0.0567
     58 C         1.667973   7.221079   -1.03112 C.3        1 UNL1     0.0210
     59 C         -1.264632   5.429688   3.058549 C.3        1 UNL1     0.0372
     60 C         0.51802   5.16742   0.695816 C.2        1 UNL1     -0.0208
     61 C         1.416033   5.609187   1.577382 C.2        1 UNL1     0.0882
     62 H         4.631187   2.801039   0.648729 H        1 UNL1     0.0365
     63 H         6.255425   3.738743   -0.159226 H        1 UNL1     0.0576
     64 H         8.321584   1.696826   -1.187983 H        1 UNL1     0.0615
     65 H         8.169372   4.81445   -1.310929 H        1 UNL1     0.0622
     66 H         -1.557817   5.229713   0.611204 H        1 UNL1     0.0645
     67 H         -1.933642   3.546395   -0.623867 H        1 UNL1     0.0362
     68 H         -2.589665   2.358226   1.100622 H        1 UNL1     0.0741
     69 H         -1.198056   0.393227   2.209042 H        1 UNL1     0.0359
     70 H         0.897802   0.640713   2.947716 H        1 UNL1     0.0600
     71 H         1.824554   -0.429922   1.304676 H        1 UNL1     0.0348
     72 H         3.330767   1.48378   1.338021 H        1 UNL1     0.0602
     73 H         0.633596   5.389462   -0.335973 H        1 UNL1     0.0628
     74 H         1.401036   5.375788   2.642529 H        1 UNL1     0.1022
     75 H         10.867992   2.569805   -3.40942 H        1 UNL1     0.0279
     76 H         10.768252   3.851333   -4.55005 H        1 UNL1     0.0279
     77 H         11.842263   3.945959   -3.096488 H        1 UNL1     0.0279
     78 H         8.964767   5.108586   -4.890536 H        1 UNL1     0.1553
     79 H         7.72595   3.595296   -4.571929 H        1 UNL1     0.1484
     80 H         3.995099   2.892916   -4.73596 H        1 UNL1     0.0317
     81 H         4.68899   4.449529   -5.166536 H        1 UNL1     0.0317
     82 H         6.636413   3.336171   -6.289781 H        1 UNL1     0.0428
     83 H         5.0962   2.831187   -6.948899 H        1 UNL1     0.0428
     84 H         6.938255   0.185694   -4.171969 H        1 UNL1     0.0428
     85 H         7.810222   1.629375   -4.552208 H        1 UNL1     0.0428
     86 H         6.509848   1.621448   -2.422932 H        1 UNL1     0.0317
     87 H         5.023153   1.369754   -3.215862 H        1 UNL1     0.0317
     88 H         7.279298   1.187199   -7.336195 H        1 UNL1     0.0429
     89 H         6.954121   -0.327802   -6.49046 H        1 UNL1     0.0429
     90 H         4.451283   0.873667   -7.467996 H        1 UNL1     0.0308
     91 H         6.710499   0.559415   -9.515837 H        1 UNL1     0.0233
     92 H         4.985891   0.483332   -9.957917 H        1 UNL1     0.0233
     93 H         5.662119   1.954918   -9.293271 H        1 UNL1     0.0233
     94 H         4.402579   -1.363839   -8.712901 H        1 UNL1     0.0233
     95 H         5.909963   -1.726907   -7.858322 H        1 UNL1     0.0233
     96 H         4.422659   -1.403471   -6.937829 H        1 UNL1     0.0233
     97 H         3.817435   10.58643   0.076058 H        1 UNL1     0.0280
     98 H         5.437147   11.219086   -0.039988 H        1 UNL1     0.0280
     99 H         4.358519   11.275284   -1.465868 H        1 UNL1     0.0280
     100 H         6.421014   10.941336   -2.698649 H        1 UNL1     0.2922
     101 H         4.659696   1.019129   2.505542 H        1 UNL1     0.0236
     102 H         6.063442   2.157038   2.532385 H        1 UNL1     0.0236
     103 H         6.231885   0.526944   1.958001 H        1 UNL1     0.0236
     104 H         4.272557   -0.542325   1.307224 H        1 UNL1     0.2098
     105 H         0.735771   1.267034   -0.929546 H        1 UNL1     0.0234
     106 H         1.296699   -0.427677   -0.995975 H        1 UNL1     0.0234
     107 H         0.0   -0.0   0.0 H        1 UNL1     0.0234
     108 H         1.176079   3.19312   1.79079 H        1 UNL1     0.2098
     109 H         1.017685   3.059555   -0.786602 H        1 UNL1     0.0234
     110 H         -0.210593   2.314097   -1.85825 H        1 UNL1     0.0234
     111 H         -0.019517   4.031639   -1.809451 H        1 UNL1     0.0234
     112 H         -3.58783   -1.744577   1.259787 H        1 UNL1     0.0342
     113 H         -3.45206   -0.094256   1.964232 H        1 UNL1     0.0342
     114 H         -4.448135   -0.375603   0.533621 H        1 UNL1     0.0342
     115 H         -2.720389   1.860865   3.276205 H        1 UNL1     0.0234
     116 H         -1.269984   1.662263   4.264976 H        1 UNL1     0.0234
     117 H         -1.603272   3.141958   3.341358 H        1 UNL1     0.0234
     118 H         0.653635   7.283071   -0.599516 H        1 UNL1     0.0309
     119 H         1.855497   8.114638   -1.634931 H        1 UNL1     0.0309
     120 H         1.591073   6.387918   -1.738252 H        1 UNL1     0.0309
     121 H         -0.891533   5.279837   4.071317 H        1 UNL1     0.0524
     122 H         -0.797398   6.347797   2.665096 H        1 UNL1     0.0524
     123 H         -2.342944   5.560682   3.071887 H        1 UNL1     0.0524
@<TRIPOS>BOND
     1     1     2    1
     2     1    42    1
     3     2     3    2
     4     3     4    1
     5     4     5    2
     6     5     7    1
     7     6    75    1
     8     6    76    1
     9     6    77    1
    10     7     9   am
    11     9    10    1
    12    10    11    2
    13    10    43    1
    14    11    14    1
    15    11    15    1
    16    12    13   ar
    17    12    27   ar
    18    12    43    1
    19    13    14    1
    20    13    30   ar
    21    14    17    2
    22    15    16    1
    23    16    17    1
    24    16    18    1
    25    16    22    1
    26    18    19    1
    27    19    20    1
    28    20    21    1
    29    21    22    1
    30    23    24    1
    31    23    88    1
    32    23    89    1
    33    24    25    1
    34    24    26    1
    35    24    90    1
    36    25    91    1
    37    25    92    1
    38    25    93    1
    39    26    94    1
    40    26    95    1
    41    26    96    1
    42    27    28   ar
    43    28    29   ar
    44    29    30   ar
    45    29    31    1
    46    30    33    1
    47    31    32    1
    48    32    33    1
    49    32    35    1
    50    34    97    1
    51    34    98    1
    52    34    99    1
    53    35    61    1
    54    36    37    1
    55    36    60    1
    56    37    38    1
    57    38    39    1
    58    39    40    1
    59    40    41    1
    60    41    42    1
    61    45   100    1
    62    47   101    1
    63    47   102    1
    64    47   103    1
    65    48   104    1
    66    49   105    1
    67    49   106    1
    68    49   107    1
    69    50   108    1
    70    51    59    1
    71    52   109    1
    72    52   110    1
    73    52   111    1
    74    53    54    1
    75    54    55    2
    76    54    56    1
    77    56   112    1
    78    56   113    1
    79    56   114    1
    80    57   115    1
    81    57   116    1
    82    57   117    1
    83    58   118    1
    84    58   119    1
    85    58   120    1
    86    59   121    1
    87    59   122    1
    88    59   123    1
    89    60    61    2
    90     1    47    1
    91     1    62    1
    92     2    63    1
    93     3    64    1
    94     4    65    1
    95     5     6    1
    96     7     8    2
    97     9    78    1
    98    15    79    1
    99    18    80    1
   100    18    81    1
   101    19    82    1
   102    19    83    1
   103    20    23    1
   104    21    84    1
   105    21    85    1
   106    22    86    1
   107    22    87    1
   108    27    45    1
   109    28    34    1
   110    32    58    1
   111    33    46    2
   112    36    51    1
   113    36    66    1
   114    37    52    1
   115    37    67    1
   116    38    53    1
   117    38    68    1
   118    42    48    1
   119    42    72    1
   120    43    44    2
   121    60    73    1
   122    61    74    1
   123    39    69    1
   124    39    57    1
   125    40    70    1
   126    40    50    1
   127    41    71    1
   128    41    49    1
