@<TRIPOS>MOLECULE
*****
 123 128 0 0 0
SMALL
GASTEIGER

@<TRIPOS>ATOM
     1 C         4.149985   0.153869   -0.851443 C.3        1 UNL1     0.0009
     2 C         5.552406   0.202251   0.36013 C.2        1 UNL1     -0.0787
     3 C         6.600139   0.934318   1.040116 C.2        1 UNL1     -0.0649
     4 C         7.611441   0.389589   2.283859 C.2        1 UNL1     -0.0542
     5 C         8.464477   0.784666   3.343728 C.2        1 UNL1     0.0115
     6 C         9.184453   1.999526   3.991085 C.3        1 UNL1     -0.0348
     7 C         8.836477   -0.284987   4.481466 C.2        1 UNL1     0.2441
     8 O         9.910652   -0.869104   4.519968 O.2        1 UNL1     -0.2702
     9 N         7.953233   -0.313217   5.574734 N.am        1 UNL1     -0.2772
     10 C         6.913013   -1.17987   5.329425 C.2        1 UNL1     0.1049
     11 C         5.910854   -0.699192   4.616091 C.2        1 UNL1     0.0801
     12 C         6.40792   -3.501155   4.545937 C.ar        1 UNL1     0.0753
     13 C         5.475872   -2.907234   3.636458 C.ar        1 UNL1     0.0305
     14 C         5.102709   -1.497949   3.735031 C.2        1 UNL1     0.0924
     15 N         5.633552   0.566659   4.259366 N.pl3        1 UNL1     -0.3170
     16 C         4.337668   0.573144   3.634149 C.3        1 UNL1     0.1275
     17 N         4.19311   -0.81085   3.049866 N.2        1 UNL1     -0.2557
     18 C         3.299095   0.673496   4.747252 C.3        1 UNL1     0.0016
     19 C         3.599273   1.907843   5.582637 C.3        1 UNL1     0.0026
     20 N         3.556031   3.079354   4.718507 N.3        1 UNL1     -0.3018
     21 C         4.477966   3.047408   3.581236 C.3        1 UNL1     0.0026
     22 C         4.155549   1.802199   2.75335 C.3        1 UNL1     0.0016
     23 C         3.530939   4.32532   5.458495 C.3        1 UNL1     0.0012
     24 C         4.87618   4.560317   6.163378 C.3        1 UNL1     -0.0339
     25 C         5.917094   5.159229   5.203243 C.3        1 UNL1     -0.0615
     26 C         4.676386   5.435969   7.388162 C.3        1 UNL1     -0.0615
     27 C         6.667094   -4.869512   4.522597 C.ar        1 UNL1     0.1347
     28 C         6.02847   -5.747587   3.665162 C.ar        1 UNL1     0.0342
     29 C         5.151361   -5.133548   2.746032 C.ar        1 UNL1     0.1435
     30 C         4.909015   -3.759381   2.733666 C.ar        1 UNL1     0.0774
     31 O         4.372005   -5.86455   1.919444 O.3        1 UNL1     -0.4436
     32 C         3.329244   -4.964896   1.514298 C.3        1 UNL1     0.3143
     33 C         3.907539   -3.577138   1.703812 C.2        1 UNL1     0.2504
     34 C         6.066657   -7.248032   3.750643 C.3        1 UNL1     -0.0327
     35 O         3.133122   -5.146463   0.106526 O.2        1 UNL1     -0.4528
     36 C         -0.524361   -4.36668   -0.543742 C.3        1 UNL1     0.0854
     37 C         -1.333001   -3.049113   -0.231271 C.3        1 UNL1     0.0236
     38 C         -2.084184   -2.402171   -1.4918 C.3        1 UNL1     0.1131
     39 C         -1.285955   -2.140911   -2.832264 C.3        1 UNL1     0.0200
     40 C         0.246808   -1.484277   -2.788567 C.3        1 UNL1     0.0661
     41 C         0.708483   -0.094752   -1.932013 C.3        1 UNL1     0.0091
     42 C         2.302474   0.335458   -1.132314 C.3        1 UNL1     0.0661
     43 C         7.022799   -2.625657   5.574377 C.2        1 UNL1     0.2131
     44 O         7.500239   -3.041804   6.614382 O.2        1 UNL1     -0.2851
     45 O         7.621828   -5.360485   5.410779 O.3        1 UNL1     -0.5056
     46 O         3.621639   -2.555528   1.120351 O.2        1 UNL1     -0.2836
     47 C         4.692879   0.171495   -2.305725 C.3        1 UNL1     -0.0566
     48 O         2.357716   1.69799   -1.715041 O.3        1 UNL1     -0.3909
     49 C         -0.387057   0.260732   -0.951749 C.3        1 UNL1     -0.0577
     50 O         1.221035   -2.495865   -2.629527 O.3        1 UNL1     -0.3910
     51 O         -0.41566   -4.714428   -1.905611 O.3        1 UNL1     -0.3753
     52 C         -0.622686   -2.173657   0.852233 C.3        1 UNL1     -0.0564
     53 O         -3.11304   -1.376174   -1.116152 O.3        1 UNL1     -0.4608
     54 C         -4.29994   -1.164775   -1.767694 C.2        1 UNL1     0.3042
     55 O         -5.392901   -0.90816   -1.26428 O.2        1 UNL1     -0.2512
     56 C         -4.180539   -1.209198   -3.264519 C.3        1 UNL1     0.0332
     57 C         -1.53193   -3.396132   -3.79252 C.3        1 UNL1     -0.0567
     58 C         2.167588   -5.162326   2.51585 C.3        1 UNL1     0.0210
     59 C         -1.331471   -5.717305   -2.343097 C.3        1 UNL1     0.0372
     60 C         0.851961   -4.408705   0.021177 C.2        1 UNL1     -0.0208
     61 C         2.002918   -4.790765   -0.533868 C.2        1 UNL1     0.0882
     62 H         3.986653   -0.898873   -0.591118 H        1 UNL1     0.0365
     63 H         5.609003   -0.849563   0.648147 H        1 UNL1     0.0576
     64 H         6.724339   2.011441   0.907873 H        1 UNL1     0.0615
     65 H         7.470598   -0.694668   2.278248 H        1 UNL1     0.0622
     66 H         -1.084436   -5.16213   -0.032252 H        1 UNL1     0.0645
     67 H         -2.185638   -3.395995   0.378027 H        1 UNL1     0.0362
     68 H         -2.787163   -3.216451   -1.724806 H        1 UNL1     0.0741
     69 H         -1.833903   -1.424446   -3.429624 H        1 UNL1     0.0359
     70 H         0.34812   -1.166142   -3.843833 H        1 UNL1     0.0600
     71 H         0.55709   0.674108   -2.714886 H        1 UNL1     0.0348
     72 H         2.530511   -0.46354   -1.852674 H        1 UNL1     0.0602
     73 H         0.810144   -4.190653   1.059422 H        1 UNL1     0.0628
     74 H         2.142203   -4.975576   -1.599551 H        1 UNL1     0.1022
     75 H         8.653383   2.320892   4.919376 H        1 UNL1     0.0279
     76 H         10.197731   1.829227   4.347926 H        1 UNL1     0.0279
     77 H         9.118126   2.909739   3.377232 H        1 UNL1     0.0279
     78 H         7.553985   0.612393   5.715891 H        1 UNL1     0.1553
     79 H         6.020711   1.371683   4.716505 H        1 UNL1     0.1484
     80 H         2.299271   0.726224   4.299662 H        1 UNL1     0.0317
     81 H         3.313447   -0.222034   5.377705 H        1 UNL1     0.0317
     82 H         4.570512   1.827894   6.092749 H        1 UNL1     0.0428
     83 H         2.848061   1.959186   6.371368 H        1 UNL1     0.0428
     84 H         4.369454   3.900685   2.904512 H        1 UNL1     0.0428
     85 H         5.527173   3.094694   3.904106 H        1 UNL1     0.0428
     86 H         4.7546   1.881878   1.865219 H        1 UNL1     0.0317
     87 H         3.128486   1.860817   2.372821 H        1 UNL1     0.0317
     88 H         3.362594   5.1428   4.745276 H        1 UNL1     0.0429
     89 H         2.699482   4.347059   6.174721 H        1 UNL1     0.0429
     90 H         5.25718   3.603059   6.538491 H        1 UNL1     0.0308
     91 H         5.480195   5.949798   4.585811 H        1 UNL1     0.0233
     92 H         6.765922   5.565468   5.758284 H        1 UNL1     0.0233
     93 H         6.330788   4.411058   4.51627 H        1 UNL1     0.0233
     94 H         5.619229   5.920617   7.663839 H        1 UNL1     0.0233
     95 H         3.94509   6.219783   7.171817 H        1 UNL1     0.0233
     96 H         4.325143   4.851804   8.243351 H        1 UNL1     0.0233
     97 H         6.160473   -7.595522   4.775181 H        1 UNL1     0.0280
     98 H         5.149691   -7.708261   3.359979 H        1 UNL1     0.0280
     99 H         6.927251   -7.6286   3.176499 H        1 UNL1     0.0280
     100 H         8.26818   -4.730936   5.678209 H        1 UNL1     0.2922
     101 H         4.548596   -0.806717   -2.763916 H        1 UNL1     0.0236
     102 H         5.727551   0.50603   -2.37299 H        1 UNL1     0.0236
     103 H         4.129981   0.867841   -2.949496 H        1 UNL1     0.0236
     104 H         3.20256   2.103349   -1.437745 H        1 UNL1     0.2098
     105 H         -0.643674   1.316869   -0.928617 H        1 UNL1     0.0234
     106 H         -1.288869   -0.345366   -1.037228 H        1 UNL1     0.0234
     107 H         0.0   0.0   0.0 H        1 UNL1     0.0234
     108 H         0.80279   -3.226075   -2.133914 H        1 UNL1     0.2098
     109 H         -1.314021   -1.470918   1.337954 H        1 UNL1     0.0234
     110 H         -0.107512   -2.767178   1.615169 H        1 UNL1     0.0234
     111 H         0.172004   -1.554535   0.415081 H        1 UNL1     0.0234
     112 H         -4.176319   -2.248498   -3.60684 H        1 UNL1     0.0342
     113 H         -4.968145   -0.639394   -3.755278 H        1 UNL1     0.0342
     114 H         -3.218896   -0.758157   -3.545532 H        1 UNL1     0.0342
     115 H         -2.341702   -4.04038   -3.423194 H        1 UNL1     0.0234
     116 H         -1.770965   -3.126521   -4.82316 H        1 UNL1     0.0234
     117 H         -0.687371   -4.106222   -3.81338 H        1 UNL1     0.0234
     118 H         2.292354   -4.544692   3.422474 H        1 UNL1     0.0309
     119 H         1.18441   -4.961816   2.078402 H        1 UNL1     0.0309
     120 H         2.121509   -6.183346   2.910188 H        1 UNL1     0.0309
     121 H         -2.27826   -5.225318   -2.564221 H        1 UNL1     0.0524
     122 H         -0.994117   -6.21807   -3.265845 H        1 UNL1     0.0524
     123 H         -1.469664   -6.464505   -1.566767 H        1 UNL1     0.0524
@<TRIPOS>BOND
     1     1     2    1
     2     1    42    1
     3     2     3    2
     4     3     4    1
     5     4     5    2
     6     5     7    1
     7     6    75    1
     8     6    76    1
     9     6    77    1
    10     7     9   am
    11     9    10    1
    12    10    11    2
    13    10    43    1
    14    11    14    1
    15    11    15    1
    16    12    13   ar
    17    12    27   ar
    18    12    43    1
    19    13    14    1
    20    13    30   ar
    21    14    17    2
    22    15    16    1
    23    16    17    1
    24    16    18    1
    25    16    22    1
    26    18    19    1
    27    19    20    1
    28    20    21    1
    29    21    22    1
    30    23    24    1
    31    23    88    1
    32    23    89    1
    33    24    25    1
    34    24    26    1
    35    24    90    1
    36    25    91    1
    37    25    92    1
    38    25    93    1
    39    26    94    1
    40    26    95    1
    41    26    96    1
    42    27    28   ar
    43    28    29   ar
    44    29    30   ar
    45    29    31    1
    46    30    33    1
    47    31    32    1
    48    32    33    1
    49    32    35    1
    50    34    97    1
    51    34    98    1
    52    34    99    1
    53    35    61    1
    54    36    37    1
    55    36    60    1
    56    37    38    1
    57    38    39    1
    58    39    40    1
    59    40    41    1
    60    41    42    1
    61    45   100    1
    62    47   101    1
    63    47   102    1
    64    47   103    1
    65    48   104    1
    66    49   105    1
    67    49   106    1
    68    49   107    1
    69    50   108    1
    70    51    59    1
    71    52   109    1
    72    52   110    1
    73    52   111    1
    74    53    54    1
    75    54    55    2
    76    54    56    1
    77    56   112    1
    78    56   113    1
    79    56   114    1
    80    57   115    1
    81    57   116    1
    82    57   117    1
    83    58   118    1
    84    58   119    1
    85    58   120    1
    86    59   121    1
    87    59   122    1
    88    59   123    1
    89    60    61    2
    90     1    47    1
    91     1    62    1
    92     2    63    1
    93     3    64    1
    94     4    65    1
    95     5     6    1
    96     7     8    2
    97     9    78    1
    98    15    79    1
    99    18    80    1
   100    18    81    1
   101    19    82    1
   102    19    83    1
   103    20    23    1
   104    21    84    1
   105    21    85    1
   106    22    86    1
   107    22    87    1
   108    27    45    1
   109    28    34    1
   110    32    58    1
   111    33    46    2
   112    36    51    1
   113    36    66    1
   114    37    52    1
   115    37    67    1
   116    38    53    1
   117    38    68    1
   118    42    48    1
   119    42    72    1
   120    43    44    2
   121    60    73    1
   122    61    74    1
   123    39    69    1
   124    39    57    1
   125    40    70    1
   126    40    50    1
   127    41    71    1
   128    41    49    1
