@<TRIPOS>MOLECULE
*****
 123 128 0 0 0
SMALL
GASTEIGER

@<TRIPOS>ATOM
     1 C         5.116144   1.915213   0.395353 C.3        1 UNL1     0.0009
     2 C         6.555878   2.650588   -0.512075 C.2        1 UNL1     -0.0787
     3 C         7.855276   2.505876   -1.133904 C.2        1 UNL1     -0.0649
     4 C         8.72481   3.665092   -2.009395 C.2        1 UNL1     -0.0542
     5 C         9.760944   3.870562   -2.953474 C.2        1 UNL1     0.0115
     6 C         10.922582   3.175457   -3.715544 C.3        1 UNL1     -0.0348
     7 C         9.839982   5.275078   -3.726829 C.2        1 UNL1     0.2441
     8 O         10.637155   6.15423   -3.429956 O.2        1 UNL1     -0.2702
     9 N         9.114182   5.326817   -4.929613 N.am        1 UNL1     -0.2772
     10 C         7.816456   5.717047   -4.690972 C.2        1 UNL1     0.1049
     11 C         6.984297   4.766521   -4.305961 C.2        1 UNL1     0.0801
     12 C         6.451038   7.445801   -3.505908 C.ar        1 UNL1     0.0753
     13 C         5.70506   6.360005   -2.946291 C.ar        1 UNL1     0.0305
     14 C         5.864803   4.991242   -3.432112 C.2        1 UNL1     0.0924
     15 N         7.138433   3.431317   -4.306084 N.pl3        1 UNL1     -0.3170
     16 C         5.874112   2.843008   -3.951626 C.3        1 UNL1     0.1275
     17 N         5.194374   3.890443   -3.103948 N.2        1 UNL1     -0.2557
     18 C         5.051076   2.734667   -5.231695 C.3        1 UNL1     0.0016
     19 C         5.84718   1.941962   -6.256111 C.3        1 UNL1     0.0026
     20 N         6.136587   0.624811   -5.706216 N.3        1 UNL1     -0.3018
     21 C         6.872881   0.627607   -4.440423 C.3        1 UNL1     0.0026
     22 C         6.052976   1.425247   -3.424835 C.3        1 UNL1     0.0016
     23 C         6.624843   -0.30749   -6.702742 C.3        1 UNL1     0.0012
     24 C         5.498981   -0.696585   -7.673719 C.3        1 UNL1     -0.0339
     25 C         5.531811   0.164676   -8.946986 C.3        1 UNL1     -0.0615
     26 C         5.58032   -2.177997   -7.998651 C.3        1 UNL1     -0.0615
     27 C         6.206966   8.762463   -3.12257 C.ar        1 UNL1     0.1347
     28 C         5.219522   9.119142   -2.221579 C.ar        1 UNL1     0.0342
     29 C         4.530833   8.029717   -1.647101 C.ar        1 UNL1     0.1435
     30 C         4.789151   6.703143   -1.994513 C.ar        1 UNL1     0.0774
     31 O         3.467333   8.217205   -0.835423 O.3        1 UNL1     -0.4436
     32 C         2.775185   6.959571   -0.848218 C.3        1 UNL1     0.3143
     33 C         3.821571   5.935463   -1.238721 C.2        1 UNL1     0.2504
     34 C         4.73374   10.516316   -1.953211 C.3        1 UNL1     -0.0327
     35 O         2.391967   6.670499   0.501905 O.2        1 UNL1     -0.4528
     36 C         -0.799506   4.629482   0.263499 C.3        1 UNL1     0.0854
     37 C         -1.056628   3.266278   -0.486892 C.3        1 UNL1     0.0236
     38 C         -1.64965   2.091613   0.429749 C.3        1 UNL1     0.1131
     39 C         -0.944701   1.732826   1.799635 C.3        1 UNL1     0.0200
     40 C         0.717682   1.632202   1.89342 C.3        1 UNL1     0.0661
     41 C         1.720902   0.755488   0.843405 C.3        1 UNL1     0.0091
     42 C         3.433711   1.090107   0.277967 C.3        1 UNL1     0.0661
     43 C         7.432071   7.131597   -4.574135 C.2        1 UNL1     0.2131
     44 O         7.830413   7.949202   -5.383815 O.2        1 UNL1     -0.2851
     45 O         7.008326   9.756073   -3.681138 O.3        1 UNL1     -0.5056
     46 O         3.859492   4.756009   -0.967972 O.2        1 UNL1     -0.2836
     47 C         5.486439   1.665324   1.8821 C.3        1 UNL1     -0.0566
     48 O         3.909501   -0.290965   0.533665 O.3        1 UNL1     -0.3909
     49 C         0.922016   0.360727   -0.378658 C.3        1 UNL1     -0.0577
     50 O         1.282659   2.901266   2.154191 O.3        1 UNL1     -0.3910
     51 O         -0.953264   4.600013   1.664542 O.3        1 UNL1     -0.3753
     52 C         0.018546   2.997516   -1.589941 C.3        1 UNL1     -0.0564
     53 O         -2.208486   0.941152   -0.355407 O.3        1 UNL1     -0.4608
     54 C         -2.423742   -0.322393   0.129412 C.2        1 UNL1     0.3042
     55 O         -1.823493   -1.351981   -0.176344 O.2        1 UNL1     -0.2512
     56 C         -3.485711   -0.386784   1.189973 C.3        1 UNL1     0.0332
     57 C         -1.709851   2.526776   2.958239 C.3        1 UNL1     -0.0567
     58 C         1.721675   7.051558   -1.976573 C.3        1 UNL1     0.0210
     59 C         -1.339497   5.841904   2.251397 C.3        1 UNL1     0.0372
     60 C         0.521272   5.25859   -0.01023 C.2        1 UNL1     -0.0208
     61 C         1.403615   5.813331   0.821923 C.2        1 UNL1     0.0882
     62 H         4.617826   2.89138   0.356776 H        1 UNL1     0.0365
     63 H         6.265237   3.702923   -0.536343 H        1 UNL1     0.0576
     64 H         8.338214   1.530923   -1.230578 H        1 UNL1     0.0615
     65 H         8.210487   4.602887   -1.782469 H        1 UNL1     0.0622
     66 H         -1.551837   5.317137   -0.147808 H        1 UNL1     0.0645
     67 H         -1.913389   3.482004   -1.148695 H        1 UNL1     0.0362
     68 H         -2.613863   2.544013   0.707506 H        1 UNL1     0.0741
     69 H         -1.259695   0.743788   2.104577 H        1 UNL1     0.0359
     70 H         0.821842   1.081634   2.847929 H        1 UNL1     0.0600
     71 H         1.775427   -0.207794   1.38753 H        1 UNL1     0.0348
     72 H         3.293986   1.68629   1.191398 H        1 UNL1     0.0602
     73 H         0.660084   5.336688   -1.059935 H        1 UNL1     0.0628
     74 H         1.364576   5.728146   1.908411 H        1 UNL1     0.1022
     75 H         10.986389   2.096824   -3.433559 H        1 UNL1     0.0279
     76 H         10.833387   3.129567   -4.798599 H        1 UNL1     0.0279
     77 H         11.912882   3.539645   -3.405105 H        1 UNL1     0.0279
     78 H         9.08306   4.400527   -5.35044 H        1 UNL1     0.1553
     79 H         7.827234   2.950214   -4.854743 H        1 UNL1     0.1484
     80 H         4.095826   2.247151   -5.002367 H        1 UNL1     0.0317
     81 H         4.80952   3.72725   -5.626764 H        1 UNL1     0.0317
     82 H         6.772289   2.462578   -6.544286 H        1 UNL1     0.0428
     83 H         5.242781   1.878307   -7.161484 H        1 UNL1     0.0428
     84 H         7.007409   -0.369195   -4.00903 H        1 UNL1     0.0428
     85 H         7.897285   1.005212   -4.564233 H        1 UNL1     0.0428
     86 H         6.552378   1.294404   -2.482781 H        1 UNL1     0.0317
     87 H         5.080965   0.942478   -3.266008 H        1 UNL1     0.0317
     88 H         7.421962   0.187899   -7.272378 H        1 UNL1     0.0429
     89 H         7.068449   -1.195593   -6.234489 H        1 UNL1     0.0429
     90 H         4.531507   -0.551207   -7.17867 H        1 UNL1     0.0308
     91 H         6.495414   0.081712   -9.45854 H        1 UNL1     0.0233
     92 H         4.734746   -0.130256   -9.633508 H        1 UNL1     0.0233
     93 H         5.374663   1.229246   -8.735251 H        1 UNL1     0.0233
     94 H         4.907323   -2.420219   -8.828253 H        1 UNL1     0.0233
     95 H         6.597917   -2.438436   -8.303002 H        1 UNL1     0.0233
     96 H         5.30163   -2.791365   -7.137211 H        1 UNL1     0.0233
     97 H         3.923937   10.534252   -1.229935 H        1 UNL1     0.0280
     98 H         5.522841   11.155974   -1.536783 H        1 UNL1     0.0280
     99 H         4.369532   10.966904   -2.890985 H        1 UNL1     0.0280
     100 H         6.533687   10.452872   -4.099244 H        1 UNL1     0.2922
     101 H         4.620886   1.273182   2.415671 H        1 UNL1     0.0236
     102 H         5.90618   2.542918   2.37264 H        1 UNL1     0.0236
     103 H         6.259072   0.885996   1.9911 H        1 UNL1     0.0236
     104 H         4.310307   -0.304603   1.42481 H        1 UNL1     0.2098
     105 H         0.704605   1.181532   -1.057498 H        1 UNL1     0.0234
     106 H         1.323533   -0.489336   -0.930115 H        1 UNL1     0.0234
     107 H         0.0   -0.0   0.0 H        1 UNL1     0.0234
     108 H         1.087877   3.469328   1.38404 H        1 UNL1     0.2098
     109 H         1.036023   2.953179   -1.177042 H        1 UNL1     0.0234
     110 H         -0.180082   2.091776   -2.172971 H        1 UNL1     0.0234
     111 H         0.037111   3.798678   -2.340769 H        1 UNL1     0.0234
     112 H         -3.601544   -1.417523   1.538549 H        1 UNL1     0.0342
     113 H         -3.276156   0.285381   2.020711 H        1 UNL1     0.0342
     114 H         -4.438456   -0.074051   0.740931 H        1 UNL1     0.0342
     115 H         -2.774672   2.259508   3.001964 H        1 UNL1     0.0234
     116 H         -1.291035   2.37101   3.954421 H        1 UNL1     0.0234
     117 H         -1.770237   3.614285   2.78042 H        1 UNL1     0.0234
     118 H         0.800926   7.561763   -1.643528 H        1 UNL1     0.0309
     119 H         2.09907   7.545675   -2.877475 H        1 UNL1     0.0309
     120 H         1.363028   6.067618   -2.298039 H        1 UNL1     0.0309
     121 H         -0.547458   6.562478   2.049394 H        1 UNL1     0.0524
     122 H         -2.270046   6.240024   1.813659 H        1 UNL1     0.0524
     123 H         -1.475648   5.725089   3.322803 H        1 UNL1     0.0524
@<TRIPOS>BOND
     1     1     2    1
     2     1    42    1
     3     2     3    2
     4     3     4    1
     5     4     5    2
     6     5     7    1
     7     6    75    1
     8     6    76    1
     9     6    77    1
    10     7     9   am
    11     9    10    1
    12    10    11    2
    13    10    43    1
    14    11    14    1
    15    11    15    1
    16    12    13   ar
    17    12    27   ar
    18    12    43    1
    19    13    14    1
    20    13    30   ar
    21    14    17    2
    22    15    16    1
    23    16    17    1
    24    16    18    1
    25    16    22    1
    26    18    19    1
    27    19    20    1
    28    20    21    1
    29    21    22    1
    30    23    24    1
    31    23    88    1
    32    23    89    1
    33    24    25    1
    34    24    26    1
    35    24    90    1
    36    25    91    1
    37    25    92    1
    38    25    93    1
    39    26    94    1
    40    26    95    1
    41    26    96    1
    42    27    28   ar
    43    28    29   ar
    44    29    30   ar
    45    29    31    1
    46    30    33    1
    47    31    32    1
    48    32    33    1
    49    32    35    1
    50    34    97    1
    51    34    98    1
    52    34    99    1
    53    35    61    1
    54    36    37    1
    55    36    60    1
    56    37    38    1
    57    38    39    1
    58    39    40    1
    59    40    41    1
    60    41    42    1
    61    45   100    1
    62    47   101    1
    63    47   102    1
    64    47   103    1
    65    48   104    1
    66    49   105    1
    67    49   106    1
    68    49   107    1
    69    50   108    1
    70    51    59    1
    71    52   109    1
    72    52   110    1
    73    52   111    1
    74    53    54    1
    75    54    55    2
    76    54    56    1
    77    56   112    1
    78    56   113    1
    79    56   114    1
    80    57   115    1
    81    57   116    1
    82    57   117    1
    83    58   118    1
    84    58   119    1
    85    58   120    1
    86    59   121    1
    87    59   122    1
    88    59   123    1
    89    60    61    2
    90     1    47    1
    91     1    62    1
    92     2    63    1
    93     3    64    1
    94     4    65    1
    95     5     6    1
    96     7     8    2
    97     9    78    1
    98    15    79    1
    99    18    80    1
   100    18    81    1
   101    19    82    1
   102    19    83    1
   103    20    23    1
   104    21    84    1
   105    21    85    1
   106    22    86    1
   107    22    87    1
   108    27    45    1
   109    28    34    1
   110    32    58    1
   111    33    46    2
   112    36    51    1
   113    36    66    1
   114    37    52    1
   115    37    67    1
   116    38    53    1
   117    38    68    1
   118    42    48    1
   119    42    72    1
   120    43    44    2
   121    60    73    1
   122    61    74    1
   123    39    69    1
   124    39    57    1
   125    40    70    1
   126    40    50    1
   127    41    71    1
   128    41    49    1
