@<TRIPOS>MOLECULE
*****
 123 128 0 0 0
SMALL
GASTEIGER

@<TRIPOS>ATOM
     1 C         5.0677   2.043788   -0.374985 C.3        1 UNL1     0.0009
     2 C         6.615142   2.492679   0.542052 C.2        1 UNL1     -0.0787
     3 C         7.467173   3.489445   1.155688 C.2        1 UNL1     -0.0649
     4 C         8.881736   3.239982   2.051868 C.2        1 UNL1     -0.0542
     5 C         9.773106   3.806645   2.996024 C.2        1 UNL1     0.0115
     6 C         10.149813   5.117967   3.738889 C.3        1 UNL1     -0.0348
     7 C         10.772581   2.839987   3.798278 C.2        1 UNL1     0.2441
     8 O         11.957671   2.726642   3.51678 O.2        1 UNL1     -0.2702
     9 N         10.259466   2.33258   5.004679 N.am        1 UNL1     -0.2772
     10 C         9.570402   1.163091   4.779273 C.2        1 UNL1     0.1049
     11 C         8.318977   1.29303   4.377683 C.2        1 UNL1     0.0801
     12 C         9.747558   -1.054721   3.635919 C.ar        1 UNL1     0.0753
     13 C         8.470078   -0.770038   3.056601 C.ar        1 UNL1     0.0305
     14 C         7.656404   0.354518   3.513062 C.2        1 UNL1     0.0924
     15 N         7.529362   2.380333   4.349281 N.pl3        1 UNL1     -0.3170
     16 C         6.204328   1.951794   3.987487 C.3        1 UNL1     0.1275
     17 N         6.421797   0.705525   3.164538 N.2        1 UNL1     -0.2557
     18 C         5.510452   1.49786   5.268182 C.3        1 UNL1     0.0016
     19 C         5.548981   2.63849   6.272706 C.3        1 UNL1     0.0026
     20 N         4.877414   3.794099   5.694264 N.3        1 UNL1     -0.3018
     21 C         5.435858   4.267318   4.425969 C.3        1 UNL1     0.0026
     22 C         5.383038   3.107111   3.430466 C.3        1 UNL1     0.0016
     23 C         4.59512   4.82875   6.669175 C.3        1 UNL1     0.0012
     24 C         3.491821   4.371091   7.636146 C.3        1 UNL1     -0.0339
     25 C         4.081437   3.862623   8.961993 C.3        1 UNL1     -0.0615
     26 C         2.497314   5.49662   7.861803 C.3        1 UNL1     -0.0615
     27 C         10.46273   -2.196119   3.281154 C.ar        1 UNL1     0.1347
     28 C         9.986967   -3.142943   2.391646 C.ar        1 UNL1     0.0342
     29 C         8.749392   -2.817101   1.797173 C.ar        1 UNL1     0.1435
     30 C         8.038413   -1.659416   2.115758 C.ar        1 UNL1     0.0774
     31 O         8.102167   -3.689201   0.993713 O.3        1 UNL1     -0.4436
     32 C         6.741631   -3.231274   0.982875 C.3        1 UNL1     0.3143
     33 C         6.815124   -1.762388   1.347821 C.2        1 UNL1     0.2504
     34 C         10.57729   -4.505057   2.154444 C.3        1 UNL1     -0.0327
     35 O         6.279143   -3.302017   -0.371508 O.2        1 UNL1     -0.4528
     36 C         2.545548   -3.95401   -0.163508 C.3        1 UNL1     0.0854
     37 C         1.425642   -3.11078   0.559192 C.3        1 UNL1     0.0236
     38 C         0.204732   -2.66363   -0.37952 C.3        1 UNL1     0.1131
     39 C         0.496695   -1.947278   -1.759327 C.3        1 UNL1     0.0200
     40 C         1.653956   -0.750316   -1.861625 C.3        1 UNL1     0.0661
     41 C         1.787903   0.592737   -0.834065 C.3        1 UNL1     0.0091
     42 C         3.269245   1.515247   -0.268379 C.3        1 UNL1     0.0661
     43 C         10.245439   -0.140492   4.693538 C.2        1 UNL1     0.2131
     44 O         11.082672   -0.458384   5.518598 O.2        1 UNL1     -0.2851
     45 O         11.718654   -2.375485   3.857281 O.3        1 UNL1     -0.5056
     46 O         6.048333   -0.873253   1.052314 O.2        1 UNL1     -0.2836
     47 C         5.188186   2.451472   -1.868055 C.3        1 UNL1     -0.0566
     48 O         2.68838   2.849303   -0.554749 O.3        1 UNL1     -0.3909
     49 C         0.918734   0.364967   0.382553 C.3        1 UNL1     -0.0577
     50 O         2.931372   -1.307156   -2.097975 O.3        1 UNL1     -0.3910
     51 O         2.428217   -4.061576   -1.564256 O.3        1 UNL1     -0.3753
     52 C         2.023196   -2.165695   1.652212 C.3        1 UNL1     -0.0564
     53 O         -0.993866   -2.180506   0.383554 O.3        1 UNL1     -0.4608
     54 C         -2.001569   -1.404587   -0.126754 C.2        1 UNL1     0.3042
     55 O         -2.258469   -0.234531   0.153979 O.2        1 UNL1     -0.2512
     56 C         -2.816535   -2.095419   -1.182829 C.3        1 UNL1     0.0332
     57 C         0.483321   -3.070305   -2.898102 C.3        1 UNL1     -0.0567
     58 C         6.015238   -3.991343   2.116973 C.3        1 UNL1     0.0210
     59 C         2.99042   -5.24776   -2.123506 C.3        1 UNL1     0.0372
     60 C         3.940669   -3.518771   0.118211 C.2        1 UNL1     -0.0208
     61 C         4.975102   -3.345303   -0.705561 C.2        1 UNL1     0.0882
     62 H         5.360554   0.988687   -0.31407 H        1 UNL1     0.0365
     63 H         7.112621   1.521732   0.589451 H        1 UNL1     0.0576
     64 H         7.162286   4.535684   1.230078 H        1 UNL1     0.0615
     65 H         9.139849   2.197521   1.846598 H        1 UNL1     0.0622
     66 H         2.451972   -4.961815   0.265 H        1 UNL1     0.0645
     67 H         0.933116   -3.837261   1.228671 H        1 UNL1     0.0362
     68 H         -0.196223   -3.653981   -0.644022 H        1 UNL1     0.0741
     69 H         -0.400819   -1.437691   -2.083671 H        1 UNL1     0.0359
     70 H         1.369052   -0.291705   -2.827837 H        1 UNL1     0.0600
     71 H         1.182647   1.329023   -1.398429 H        1 UNL1     0.0348
     72 H         3.579927   0.965331   -1.168593 H        1 UNL1     0.0602
     73 H         4.083857   -3.46345   1.168775 H        1 UNL1     0.0628
     74 H         4.901014   -3.328575   -1.793435 H        1 UNL1     0.1022
     75 H         9.452615   5.943062   3.455749 H        1 UNL1     0.0279
     76 H         10.066242   5.102407   4.823252 H        1 UNL1     0.0279
     77 H         11.116257   5.529126   3.412338 H        1 UNL1     0.0279
     78 H         9.60525   3.001083   5.406154 H        1 UNL1     0.1553
     79 H         7.705011   3.210388   4.885088 H        1 UNL1     0.1484
     80 H         4.479795   1.206448   5.032402 H        1 UNL1     0.0317
     81 H         5.999472   0.610791   5.684859 H        1 UNL1     0.0317
     82 H         6.579164   2.886203   6.568128 H        1 UNL1     0.0428
     83 H         5.05058   2.292807   7.178879 H        1 UNL1     0.0428
     84 H         4.865573   5.084435   3.973302 H        1 UNL1     0.0428
     85 H         6.444291   4.68453   4.553688 H        1 UNL1     0.0428
     86 H         5.67297   3.524303   2.483957 H        1 UNL1     0.0317
     87 H         4.342452   2.802137   3.265335 H        1 UNL1     0.0317
     88 H         5.5108   5.013525   7.245962 H        1 UNL1     0.0429
     89 H         4.326397   5.77426   6.180735 H        1 UNL1     0.0429
     90 H         2.922551   3.55694   7.172138 H        1 UNL1     0.0308
     91 H         4.696391   4.628787   9.443579 H        1 UNL1     0.0233
     92 H         3.286438   3.558157   9.646746 H        1 UNL1     0.0233
     93 H         4.720424   2.981943   8.824393 H        1 UNL1     0.0233
     94 H         1.824275   5.245798   8.688811 H        1 UNL1     0.0233
     95 H         3.027248   6.416194   8.125464 H        1 UNL1     0.0233
     96 H         1.893661   5.680777   6.968686 H        1 UNL1     0.0233
     97 H         9.996082   -5.08254   1.441744 H        1 UNL1     0.0280
     98 H         11.592292   -4.449699   1.73976 H        1 UNL1     0.0280
     99 H         10.611973   -5.062803   3.104608 H        1 UNL1     0.0280
     100 H         11.83966   -3.206709   4.2816 H        1 UNL1     0.2922
     101 H         4.296958   2.133972   -2.408945 H        1 UNL1     0.0236
     102 H         6.10229   2.090762   -2.338465 H        1 UNL1     0.0236
     103 H         5.218785   3.546262   -1.997245 H        1 UNL1     0.0236
     104 H         2.979491   3.111769   -1.449923 H        1 UNL1     0.2098
     105 H         1.306138   -0.374183   1.079249 H        1 UNL1     0.0234
     106 H         0.633218   1.272374   0.914551 H        1 UNL1     0.0234
     107 H         -0.0   0.0   0.0 H        1 UNL1     0.0234
     108 H         3.170785   -1.829469   -1.308267 H        1 UNL1     0.2098
     109 H         2.756371   -1.460393   1.236621 H        1 UNL1     0.0234
     110 H         1.258226   -1.61352   2.208688 H        1 UNL1     0.0234
     111 H         2.559728   -2.730486   2.426222 H        1 UNL1     0.0234
     112 H         -3.586954   -1.416905   -1.561536 H        1 UNL1     0.0342
     113 H         -2.197705   -2.475702   -1.994172 H        1 UNL1     0.0342
     114 H         -3.322027   -2.953777   -0.719294 H        1 UNL1     0.0342
     115 H         -0.476888   -3.603053   -2.935052 H        1 UNL1     0.0234
     116 H         0.685699   -2.688331   -3.900693 H        1 UNL1     0.0234
     117 H         1.181429   -3.902578   -2.703403 H        1 UNL1     0.0234
     118 H         5.681907   -4.994038   1.796816 H        1 UNL1     0.0309
     119 H         6.618944   -4.087596   3.02498 H        1 UNL1     0.0309
     120 H         5.084281   -3.501263   2.422336 H        1 UNL1     0.0309
     121 H         4.06461   -5.220513   -1.942592 H        1 UNL1     0.0524
     122 H         2.596804   -6.161651   -1.648211 H        1 UNL1     0.0524
     123 H         2.790994   -5.291336   -3.190476 H        1 UNL1     0.0524
@<TRIPOS>BOND
     1     1     2    1
     2     1    42    1
     3     2     3    2
     4     3     4    1
     5     4     5    2
     6     5     7    1
     7     6    75    1
     8     6    76    1
     9     6    77    1
    10     7     9   am
    11     9    10    1
    12    10    11    2
    13    10    43    1
    14    11    14    1
    15    11    15    1
    16    12    13   ar
    17    12    27   ar
    18    12    43    1
    19    13    14    1
    20    13    30   ar
    21    14    17    2
    22    15    16    1
    23    16    17    1
    24    16    18    1
    25    16    22    1
    26    18    19    1
    27    19    20    1
    28    20    21    1
    29    21    22    1
    30    23    24    1
    31    23    88    1
    32    23    89    1
    33    24    25    1
    34    24    26    1
    35    24    90    1
    36    25    91    1
    37    25    92    1
    38    25    93    1
    39    26    94    1
    40    26    95    1
    41    26    96    1
    42    27    28   ar
    43    28    29   ar
    44    29    30   ar
    45    29    31    1
    46    30    33    1
    47    31    32    1
    48    32    33    1
    49    32    35    1
    50    34    97    1
    51    34    98    1
    52    34    99    1
    53    35    61    1
    54    36    37    1
    55    36    60    1
    56    37    38    1
    57    38    39    1
    58    39    40    1
    59    40    41    1
    60    41    42    1
    61    45   100    1
    62    47   101    1
    63    47   102    1
    64    47   103    1
    65    48   104    1
    66    49   105    1
    67    49   106    1
    68    49   107    1
    69    50   108    1
    70    51    59    1
    71    52   109    1
    72    52   110    1
    73    52   111    1
    74    53    54    1
    75    54    55    2
    76    54    56    1
    77    56   112    1
    78    56   113    1
    79    56   114    1
    80    57   115    1
    81    57   116    1
    82    57   117    1
    83    58   118    1
    84    58   119    1
    85    58   120    1
    86    59   121    1
    87    59   122    1
    88    59   123    1
    89    60    61    2
    90     1    47    1
    91     1    62    1
    92     2    63    1
    93     3    64    1
    94     4    65    1
    95     5     6    1
    96     7     8    2
    97     9    78    1
    98    15    79    1
    99    18    80    1
   100    18    81    1
   101    19    82    1
   102    19    83    1
   103    20    23    1
   104    21    84    1
   105    21    85    1
   106    22    86    1
   107    22    87    1
   108    27    45    1
   109    28    34    1
   110    32    58    1
   111    33    46    2
   112    36    51    1
   113    36    66    1
   114    37    52    1
   115    37    67    1
   116    38    53    1
   117    38    68    1
   118    42    48    1
   119    42    72    1
   120    43    44    2
   121    60    73    1
   122    61    74    1
   123    39    69    1
   124    39    57    1
   125    40    70    1
   126    40    50    1
   127    41    71    1
   128    41    49    1
