@<TRIPOS>MOLECULE
*****
 123 128 0 0 0
SMALL
GASTEIGER

@<TRIPOS>ATOM
     1 C         5.173311   1.729238   0.493152 C.3        1 UNL1     0.0009
     2 C         6.615253   2.525324   -0.357781 C.2        1 UNL1     -0.0787
     3 C         7.897451   2.418488   -1.021559 C.2        1 UNL1     -0.0649
     4 C         8.78227   3.646771   -1.779697 C.2        1 UNL1     -0.0542
     5 C         9.804999   3.931303   -2.717858 C.2        1 UNL1     0.0115
     6 C         10.931032   3.297419   -3.580158 C.3        1 UNL1     -0.0348
     7 C         9.90882   5.412223   -3.328667 C.2        1 UNL1     0.2441
     8 O         10.736482   6.230706   -2.952386 O.2        1 UNL1     -0.2702
     9 N         9.161177   5.61958   -4.500923 N.am        1 UNL1     -0.2772
     10 C         7.88009   6.013856   -4.189979 C.2        1 UNL1     0.1049
     11 C         7.028895   5.047728   -3.896236 C.2        1 UNL1     0.0801
     12 C         6.588272   7.631446   -2.78572 C.ar        1 UNL1     0.0753
     13 C         5.822791   6.508833   -2.335844 C.ar        1 UNL1     0.0305
     14 C         5.933755   5.200617   -2.977177 C.2        1 UNL1     0.0924
     15 N         7.144807   3.717661   -4.051197 N.pl3        1 UNL1     -0.3170
     16 C         5.87145   3.126039   -3.736871 C.3        1 UNL1     0.1275
     17 N         5.238777   4.087495   -2.760628 N.2        1 UNL1     -0.2557
     18 C         5.020531   3.185756   -5.001811 C.3        1 UNL1     0.0016
     19 C         5.773283   2.494376   -6.127399 C.3        1 UNL1     0.0026
     20 N         6.035765   1.116051   -5.737077 N.3        1 UNL1     -0.3018
     21 C         6.796698   0.955404   -4.496294 C.3        1 UNL1     0.0026
     22 C         6.020126   1.653313   -3.378371 C.3        1 UNL1     0.0016
     23 C         6.477419   0.290897   -6.843742 C.3        1 UNL1     0.0012
     24 C         5.321944   0.044488   -7.826553 C.3        1 UNL1     -0.0339
     25 C         5.354198   1.044028   -8.99443 C.3        1 UNL1     -0.0615
     26 C         5.354512   -1.391885   -8.319049 C.3        1 UNL1     -0.0615
     27 C         6.389518   8.901796   -2.250159 C.ar        1 UNL1     0.1347
     28 C         5.430652   9.179197   -1.292205 C.ar        1 UNL1     0.0342
     29 C         4.722616   8.049791   -0.829289 C.ar        1 UNL1     0.1435
     30 C         4.936034   6.765133   -1.330614 C.ar        1 UNL1     0.0774
     31 O         3.681145   8.17132   0.022517 O.3        1 UNL1     -0.4436
     32 C         2.953249   6.941846   -0.116885 C.3        1 UNL1     0.3143
     33 C         3.962044   5.941899   -0.644759 C.2        1 UNL1     0.2504
     34 C         4.990362   10.548918   -0.856191 C.3        1 UNL1     -0.0327
     35 O         2.588676   6.510973   1.20019 O.2        1 UNL1     -0.4528
     36 C         -0.663866   4.59448   0.805075 C.3        1 UNL1     0.0854
     37 C         -0.974584   3.332813   -0.088891 C.3        1 UNL1     0.0236
     38 C         -1.582686   2.077276   0.702047 C.3        1 UNL1     0.1131
     39 C         -0.861348   1.546486   2.005965 C.3        1 UNL1     0.0200
     40 C         0.799012   1.392436   2.049698 C.3        1 UNL1     0.0661
     41 C         1.75585   0.615127   0.884425 C.3        1 UNL1     0.0091
     42 C         3.466012   0.967113   0.321526 C.3        1 UNL1     0.0661
     43 C         7.53864   7.415446   -3.904829 C.2        1 UNL1     0.2131
     44 O         7.944096   8.309273   -4.625535 O.2        1 UNL1     -0.2851
     45 O         7.207735   9.931288   -2.710708 O.3        1 UNL1     -0.5056
     46 O         3.97161   4.738696   -0.510354 O.2        1 UNL1     -0.2836
     47 C         5.565616   1.30203   1.933143 C.3        1 UNL1     -0.0566
     48 O         3.907128   -0.446052   0.408117 O.3        1 UNL1     -0.3909
     49 C         0.922033   0.383149   -0.355909 C.3        1 UNL1     -0.0577
     50 O         1.405039   2.608338   2.439617 O.3        1 UNL1     -0.3910
     51 O         -0.790698   4.409637   2.1969 O.3        1 UNL1     -0.3753
     52 C         0.070478   3.163452   -1.239591 C.3        1 UNL1     -0.0564
     53 O         -2.189547   1.038737   -0.19544 O.3        1 UNL1     -0.4608
     54 C         -2.418697   -0.269171   0.143376 C.2        1 UNL1     0.3042
     55 O         -1.850638   -1.266224   -0.300508 O.2        1 UNL1     -0.2512
     56 C         -3.450591   -0.439127   1.221812 C.3        1 UNL1     0.0332
     57 C         -1.580478   2.223009   3.264274 C.3        1 UNL1     -0.0567
     58 C         1.880712   7.189258   -1.203155 C.3        1 UNL1     0.0210
     59 C         -1.129642   5.586259   2.929391 C.3        1 UNL1     0.0372
     60 C         0.668674   5.215951   0.574268 C.2        1 UNL1     -0.0208
     61 C         1.582763   5.649048   1.443528 C.2        1 UNL1     0.0882
     62 H         4.702408   2.716129   0.576856 H        1 UNL1     0.0365
     63 H         6.354358   3.580806   -0.255983 H        1 UNL1     0.0576
     64 H         8.350347   1.448611   -1.239116 H        1 UNL1     0.0615
     65 H         8.29952   4.565727   -1.436253 H        1 UNL1     0.0622
     66 H         -1.404231   5.343932   0.491661 H        1 UNL1     0.0645
     67 H         -1.83774   3.644832   -0.702214 H        1 UNL1     0.0362
     68 H         -2.527912   2.520127   1.051262 H        1 UNL1     0.0741
     69 H         -1.198372   0.537718   2.203983 H        1 UNL1     0.0359
     70 H         0.906242   0.734191   2.933031 H        1 UNL1     0.0600
     71 H         1.793582   -0.40496   1.31449 H        1 UNL1     0.0348
     72 H         3.36144   1.458812   1.299591 H        1 UNL1     0.0602
     73 H         0.788897   5.40946   -0.462722 H        1 UNL1     0.0628
     74 H         1.562777   5.441704   2.51397 H        1 UNL1     0.1022
     75 H         10.969569   2.19239   -3.42376 H        1 UNL1     0.0279
     76 H         10.819188   3.377546   -4.659111 H        1 UNL1     0.0279
     77 H         11.937268   3.597877   -3.253178 H        1 UNL1     0.0279
     78 H         9.095309   4.748386   -5.023188 H        1 UNL1     0.1553
     79 H         7.808616   3.284356   -4.666451 H        1 UNL1     0.1484
     80 H         4.056465   2.700415   -4.807422 H        1 UNL1     0.0317
     81 H         4.799662   4.222851   -5.276221 H        1 UNL1     0.0317
     82 H         6.707009   3.020081   -6.3758 H        1 UNL1     0.0428
     83 H         5.149546   2.550079   -7.020091 H        1 UNL1     0.0428
     84 H         6.911201   -0.087222   -4.183834 H        1 UNL1     0.0428
     85 H         7.828822   1.31776   -4.599911 H        1 UNL1     0.0428
     86 H         6.534099   1.403009   -2.468884 H        1 UNL1     0.0317
     87 H         5.038052   1.181156   -3.253089 H        1 UNL1     0.0317
     88 H         7.276952   0.826953   -7.371648 H        1 UNL1     0.0429
     89 H         6.904646   -0.656049   -6.489419 H        1 UNL1     0.0429
     90 H         4.368984   0.157754   -7.296222 H        1 UNL1     0.0308
     91 H         6.304746   0.994728   -9.533994 H        1 UNL1     0.0233
     92 H         4.535631   0.850143   -9.691542 H        1 UNL1     0.0233
     93 H         5.231728   2.081289   -8.659878 H        1 UNL1     0.0233
     94 H         4.658617   -1.520364   -9.155146 H        1 UNL1     0.0233
     95 H         6.358046   -1.642456   -8.674147 H        1 UNL1     0.0233
     96 H         5.075491   -2.091896   -7.526521 H        1 UNL1     0.0233
     97 H         4.195847   10.505499   -0.117212 H        1 UNL1     0.0280
     98 H         5.80548   11.116141   -0.388113 H        1 UNL1     0.0280
     99 H         4.620718   11.112756   -1.728283 H        1 UNL1     0.0280
     100 H         6.745022   10.683338   -3.036189 H        1 UNL1     0.2922
     101 H         4.699926   0.87441   2.438492 H        1 UNL1     0.0236
     102 H         6.019853   2.106767   2.510248 H        1 UNL1     0.0236
     103 H         6.31768   0.495441   1.935423 H        1 UNL1     0.0236
     104 H         4.324905   -0.571579   1.282574 H        1 UNL1     0.2098
     105 H         0.709721   1.282225   -0.928969 H        1 UNL1     0.0234
     106 H         1.291498   -0.404696   -1.012204 H        1 UNL1     0.0234
     107 H         0.0   -0.0   0.0 H        1 UNL1     0.0234
     108 H         1.210785   3.265513   1.743804 H        1 UNL1     0.2098
     109 H         1.094231   3.045802   -0.857755 H        1 UNL1     0.0234
     110 H         -0.165411   2.33552   -1.916813 H        1 UNL1     0.0234
     111 H         0.097079   4.044165   -1.895017 H        1 UNL1     0.0234
     112 H         -3.57916   -1.501604   1.449757 H        1 UNL1     0.0342
     113 H         -3.202097   0.125687   2.119074 H        1 UNL1     0.0342
     114 H         -4.408779   -0.0576   0.843028 H        1 UNL1     0.0342
     115 H         -2.646085   1.960274   3.315649 H        1 UNL1     0.0234
     116 H         -1.131499   1.963025   4.224938 H        1 UNL1     0.0234
     117 H         -1.635148   3.323416   3.200574 H        1 UNL1     0.0234
     118 H         0.981667   7.682085   -0.793465 H        1 UNL1     0.0309
     119 H         2.254193   7.772752   -2.050651 H        1 UNL1     0.0309
     120 H         1.487833   6.258049   -1.625768 H        1 UNL1     0.0309
     121 H         -0.321494   6.304213   2.792288 H        1 UNL1     0.0524
     122 H         -2.056908   6.055827   2.560988 H        1 UNL1     0.0524
     123 H         -1.247883   5.351758   3.983489 H        1 UNL1     0.0524
@<TRIPOS>BOND
     1     1     2    1
     2     1    42    1
     3     2     3    2
     4     3     4    1
     5     4     5    2
     6     5     7    1
     7     6    75    1
     8     6    76    1
     9     6    77    1
    10     7     9   am
    11     9    10    1
    12    10    11    2
    13    10    43    1
    14    11    14    1
    15    11    15    1
    16    12    13   ar
    17    12    27   ar
    18    12    43    1
    19    13    14    1
    20    13    30   ar
    21    14    17    2
    22    15    16    1
    23    16    17    1
    24    16    18    1
    25    16    22    1
    26    18    19    1
    27    19    20    1
    28    20    21    1
    29    21    22    1
    30    23    24    1
    31    23    88    1
    32    23    89    1
    33    24    25    1
    34    24    26    1
    35    24    90    1
    36    25    91    1
    37    25    92    1
    38    25    93    1
    39    26    94    1
    40    26    95    1
    41    26    96    1
    42    27    28   ar
    43    28    29   ar
    44    29    30   ar
    45    29    31    1
    46    30    33    1
    47    31    32    1
    48    32    33    1
    49    32    35    1
    50    34    97    1
    51    34    98    1
    52    34    99    1
    53    35    61    1
    54    36    37    1
    55    36    60    1
    56    37    38    1
    57    38    39    1
    58    39    40    1
    59    40    41    1
    60    41    42    1
    61    45   100    1
    62    47   101    1
    63    47   102    1
    64    47   103    1
    65    48   104    1
    66    49   105    1
    67    49   106    1
    68    49   107    1
    69    50   108    1
    70    51    59    1
    71    52   109    1
    72    52   110    1
    73    52   111    1
    74    53    54    1
    75    54    55    2
    76    54    56    1
    77    56   112    1
    78    56   113    1
    79    56   114    1
    80    57   115    1
    81    57   116    1
    82    57   117    1
    83    58   118    1
    84    58   119    1
    85    58   120    1
    86    59   121    1
    87    59   122    1
    88    59   123    1
    89    60    61    2
    90     1    47    1
    91     1    62    1
    92     2    63    1
    93     3    64    1
    94     4    65    1
    95     5     6    1
    96     7     8    2
    97     9    78    1
    98    15    79    1
    99    18    80    1
   100    18    81    1
   101    19    82    1
   102    19    83    1
   103    20    23    1
   104    21    84    1
   105    21    85    1
   106    22    86    1
   107    22    87    1
   108    27    45    1
   109    28    34    1
   110    32    58    1
   111    33    46    2
   112    36    51    1
   113    36    66    1
   114    37    52    1
   115    37    67    1
   116    38    53    1
   117    38    68    1
   118    42    48    1
   119    42    72    1
   120    43    44    2
   121    60    73    1
   122    61    74    1
   123    39    69    1
   124    39    57    1
   125    40    70    1
   126    40    50    1
   127    41    71    1
   128    41    49    1
