@<TRIPOS>MOLECULE
*****
 123 128 0 0 0
SMALL
GASTEIGER

@<TRIPOS>ATOM
     1 C         5.161587   1.769464   0.475702 C.3        1 UNL1     0.0009
     2 C         6.598142   2.566042   -0.383839 C.2        1 UNL1     -0.0787
     3 C         7.881767   2.460889   -1.045121 C.2        1 UNL1     -0.0649
     4 C         8.757782   3.686454   -1.817743 C.2        1 UNL1     -0.0542
     5 C         9.779181   3.967197   -2.758491 C.2        1 UNL1     0.0115
     6 C         10.910918   3.331368   -3.611846 C.3        1 UNL1     -0.0348
     7 C         9.872124   5.441153   -3.387621 C.2        1 UNL1     0.2441
     8 O         10.693062   6.270651   -3.020855 O.2        1 UNL1     -0.2702
     9 N         9.124027   5.628087   -4.563019 N.am        1 UNL1     -0.2772
     10 C         7.839628   6.016264   -4.258124 C.2        1 UNL1     0.1049
     11 C         6.995654   5.0473   -3.9531 C.2        1 UNL1     0.0801
     12 C         6.533974   7.641159   -2.875258 C.ar        1 UNL1     0.0753
     13 C         5.776774   6.518337   -2.412087 C.ar        1 UNL1     0.0305
     14 C         5.898479   5.203132   -3.036967 C.2        1 UNL1     0.0924
     15 N         7.122008   3.716344   -4.091369 N.pl3        1 UNL1     -0.3170
     16 C         5.852967   3.11883   -3.770797 C.3        1 UNL1     0.1275
     17 N         5.21193   4.08744   -2.807164 N.2        1 UNL1     -0.2557
     18 C         5.002831   3.156186   -5.03712 C.3        1 UNL1     0.0016
     19 C         5.761996   2.456694   -6.15335 C.3        1 UNL1     0.0026
     20 N         6.034764   1.085415   -5.745651 N.3        1 UNL1     -0.3018
     21 C         6.795722   0.946141   -4.502303 C.3        1 UNL1     0.0026
     22 C         6.012693   1.651882   -3.393839 C.3        1 UNL1     0.0016
     23 C         6.483857   0.249987   -6.841561 C.3        1 UNL1     0.0012
     24 C         5.331272   -0.017597   -7.822225 C.3        1 UNL1     -0.0339
     25 C         5.407218   0.91022   -9.045927 C.3        1 UNL1     -0.0615
     26 C         5.323254   -1.480705   -8.229692 C.3        1 UNL1     -0.0615
     27 C         6.324877   8.916503   -2.355746 C.ar        1 UNL1     0.1347
     28 C         5.36297   9.198374   -1.402155 C.ar        1 UNL1     0.0342
     29 C         4.663252   8.069368   -0.925811 C.ar        1 UNL1     0.1435
     30 C         4.887092   6.780257   -1.410899 C.ar        1 UNL1     0.0774
     31 O         3.620051   8.193422   -0.076489 O.3        1 UNL1     -0.4436
     32 C         2.901829   6.9567   -0.201187 C.3        1 UNL1     0.3143
     33 C         3.918843   5.958106   -0.715681 C.2        1 UNL1     0.2504
     34 C         4.91167   10.569967   -0.983631 C.3        1 UNL1     -0.0327
     35 O         2.539333   6.539455   1.12084 O.2        1 UNL1     -0.4528
     36 C         -0.697894   4.593032   0.746825 C.3        1 UNL1     0.0854
     37 C         -0.997974   3.317955   -0.131614 C.3        1 UNL1     0.0236
     38 C         -1.5971   2.067692   0.674385 C.3        1 UNL1     0.1131
     39 C         -0.872931   1.558795   1.985442 C.3        1 UNL1     0.0200
     40 C         0.788528   1.418178   2.032532 C.3        1 UNL1     0.0661
     41 C         1.752477   0.633854   0.877868 C.3        1 UNL1     0.0091
     42 C         3.460404   0.992047   0.312108 C.3        1 UNL1     0.0661
     43 C         7.487064   7.418608   -3.990764 C.2        1 UNL1     0.2131
     44 O         7.886283   8.306503   -4.722203 O.2        1 UNL1     -0.2851
     45 O         7.135544   9.94649   -2.828381 O.3        1 UNL1     -0.5056
     46 O         3.937592   4.756781   -0.566281 O.2        1 UNL1     -0.2836
     47 C         5.555799   1.363283   1.921245 C.3        1 UNL1     -0.0566
     48 O         3.912363   -0.416467   0.41669 O.3        1 UNL1     -0.3909
     49 C         0.921676   0.379985   -0.360201 C.3        1 UNL1     -0.0577
     50 O         1.384748   2.643505   2.40779 O.3        1 UNL1     -0.3910
     51 O         -0.824631   4.424564   2.140736 O.3        1 UNL1     -0.3753
     52 C         0.049476   3.142378   -1.279208 C.3        1 UNL1     -0.0564
     53 O         -2.195039   1.013379   -0.210613 O.3        1 UNL1     -0.4608
     54 C         -2.426896   -0.288565   0.14871 C.2        1 UNL1     0.3042
     55 O         -1.853265   -1.292755   -0.271277 O.2        1 UNL1     -0.2512
     56 C         -3.470397   -0.440448   1.21864 C.3        1 UNL1     0.0332
     57 C         -1.598489   2.245346   3.234597 C.3        1 UNL1     -0.0567
     58 C         1.828456   7.182239   -1.291386 C.3        1 UNL1     0.0210
     59 C         -1.142482   5.614059   2.861804 C.3        1 UNL1     0.0372
     60 C         0.630018   5.221891   0.509445 C.2        1 UNL1     -0.0208
     61 C         1.539889   5.672856   1.37403 C.2        1 UNL1     0.0882
     62 H         4.682977   2.753641   0.546689 H        1 UNL1     0.0365
     63 H         6.328987   3.620656   -0.295431 H        1 UNL1     0.0576
     64 H         8.342367   1.491917   -1.25018 H        1 UNL1     0.0615
     65 H         8.267602   4.605848   -1.486199 H        1 UNL1     0.0622
     66 H         -1.443736   5.332758   0.423451 H        1 UNL1     0.0645
     67 H         -1.862929   3.615608   -0.749526 H        1 UNL1     0.0362
     68 H         -2.546063   2.507518   1.017233 H        1 UNL1     0.0741
     69 H         -1.202327   0.54999   2.195727 H        1 UNL1     0.0359
     70 H         0.899999   0.77184   2.924093 H        1 UNL1     0.0600
     71 H         1.79769   -0.380473   1.320648 H        1 UNL1     0.0348
     72 H         3.351087   1.495067   1.283878 H        1 UNL1     0.0602
     73 H         0.749738   5.403392   -0.529772 H        1 UNL1     0.0628
     74 H         1.520477   5.478714   2.446956 H        1 UNL1     0.1022
     75 H         10.939303   2.22493   -3.463447 H        1 UNL1     0.0279
     76 H         10.812874   3.420487   -4.691436 H        1 UNL1     0.0279
     77 H         11.915292   3.621745   -3.270357 H        1 UNL1     0.0279
     78 H         9.065409   4.749971   -5.074441 H        1 UNL1     0.1553
     79 H         7.789744   3.280568   -4.700599 H        1 UNL1     0.1484
     80 H         4.042364   2.665845   -4.837532 H        1 UNL1     0.0317
     81 H         4.774204   4.188039   -5.324627 H        1 UNL1     0.0317
     82 H         6.691863   2.986487   -6.407475 H        1 UNL1     0.0428
     83 H         5.138707   2.496435   -7.047207 H        1 UNL1     0.0428
     84 H         6.917991   -0.091592   -4.176772 H        1 UNL1     0.0428
     85 H         7.825108   1.315169   -4.609533 H        1 UNL1     0.0428
     86 H         6.527712   1.416919   -2.480857 H        1 UNL1     0.0317
     87 H         5.034184   1.173722   -3.263532 H        1 UNL1     0.0317
     88 H         7.279725   0.785607   -7.375415 H        1 UNL1     0.0429
     89 H         6.91806   -0.689131   -6.475092 H        1 UNL1     0.0429
     90 H         4.377005   0.156172   -7.31096 H        1 UNL1     0.0308
     91 H         6.363663   0.804316   -9.566599 H        1 UNL1     0.0233
     92 H         4.5937   0.697134   -9.743345 H        1 UNL1     0.0233
     93 H         5.308155   1.968241   -8.774612 H        1 UNL1     0.0233
     94 H         4.633405   -1.636029   -9.066244 H        1 UNL1     0.0233
     95 H         6.32227   -1.783182   -8.555939 H        1 UNL1     0.0233
     96 H         5.012548   -2.123865   -7.401576 H        1 UNL1     0.0233
     97 H         4.110526   10.529612   -0.251668 H        1 UNL1     0.0280
     98 H         5.719489   11.145919   -0.513563 H        1 UNL1     0.0280
     99 H         4.547317   11.123391   -1.864575 H        1 UNL1     0.0280
     100 H         6.667344   10.69136   -3.162418 H        1 UNL1     0.2922
     101 H         4.689777   0.946766   2.435225 H        1 UNL1     0.0236
     102 H         6.01435   2.175229   2.484678 H        1 UNL1     0.0236
     103 H         6.304926   0.554067   1.93432 H        1 UNL1     0.0236
     104 H         4.324875   -0.529401   1.295354 H        1 UNL1     0.2098
     105 H         0.708035   1.26929   -0.947828 H        1 UNL1     0.0234
     106 H         1.294531   -0.417141   -1.003237 H        1 UNL1     0.0234
     107 H         0.0   -0.0   0.0 H        1 UNL1     0.0234
     108 H         1.20114   3.285679   1.695281 H        1 UNL1     0.2098
     109 H         1.075159   3.049821   -0.895648 H        1 UNL1     0.0234
     110 H         -0.172677   2.296786   -1.93903 H        1 UNL1     0.0234
     111 H         0.061131   4.009676   -1.95271 H        1 UNL1     0.0234
     112 H         -3.591576   -1.497814   1.472883 H        1 UNL1     0.0342
     113 H         -3.238476   0.15011   2.103681 H        1 UNL1     0.0342
     114 H         -4.427436   -0.078498   0.818347 H        1 UNL1     0.0342
     115 H         -2.667562   1.994939   3.274187 H        1 UNL1     0.0234
     116 H         -1.163476   1.981609   4.200649 H        1 UNL1     0.0234
     117 H         -1.639775   3.346214   3.168835 H        1 UNL1     0.0234
     118 H         0.924608   7.67174   -0.88833 H        1 UNL1     0.0309
     119 H         2.197794   7.759316   -2.145068 H        1 UNL1     0.0309
     120 H         1.444313   6.242842   -1.703786 H        1 UNL1     0.0309
     121 H         -0.305959   6.302793   2.74678 H        1 UNL1     0.0524
     122 H         -2.041804   6.115148   2.466626 H        1 UNL1     0.0524
     123 H         -1.29873   5.386269   3.912419 H        1 UNL1     0.0524
@<TRIPOS>BOND
     1     1     2    1
     2     1    42    1
     3     2     3    2
     4     3     4    1
     5     4     5    2
     6     5     7    1
     7     6    75    1
     8     6    76    1
     9     6    77    1
    10     7     9   am
    11     9    10    1
    12    10    11    2
    13    10    43    1
    14    11    14    1
    15    11    15    1
    16    12    13   ar
    17    12    27   ar
    18    12    43    1
    19    13    14    1
    20    13    30   ar
    21    14    17    2
    22    15    16    1
    23    16    17    1
    24    16    18    1
    25    16    22    1
    26    18    19    1
    27    19    20    1
    28    20    21    1
    29    21    22    1
    30    23    24    1
    31    23    88    1
    32    23    89    1
    33    24    25    1
    34    24    26    1
    35    24    90    1
    36    25    91    1
    37    25    92    1
    38    25    93    1
    39    26    94    1
    40    26    95    1
    41    26    96    1
    42    27    28   ar
    43    28    29   ar
    44    29    30   ar
    45    29    31    1
    46    30    33    1
    47    31    32    1
    48    32    33    1
    49    32    35    1
    50    34    97    1
    51    34    98    1
    52    34    99    1
    53    35    61    1
    54    36    37    1
    55    36    60    1
    56    37    38    1
    57    38    39    1
    58    39    40    1
    59    40    41    1
    60    41    42    1
    61    45   100    1
    62    47   101    1
    63    47   102    1
    64    47   103    1
    65    48   104    1
    66    49   105    1
    67    49   106    1
    68    49   107    1
    69    50   108    1
    70    51    59    1
    71    52   109    1
    72    52   110    1
    73    52   111    1
    74    53    54    1
    75    54    55    2
    76    54    56    1
    77    56   112    1
    78    56   113    1
    79    56   114    1
    80    57   115    1
    81    57   116    1
    82    57   117    1
    83    58   118    1
    84    58   119    1
    85    58   120    1
    86    59   121    1
    87    59   122    1
    88    59   123    1
    89    60    61    2
    90     1    47    1
    91     1    62    1
    92     2    63    1
    93     3    64    1
    94     4    65    1
    95     5     6    1
    96     7     8    2
    97     9    78    1
    98    15    79    1
    99    18    80    1
   100    18    81    1
   101    19    82    1
   102    19    83    1
   103    20    23    1
   104    21    84    1
   105    21    85    1
   106    22    86    1
   107    22    87    1
   108    27    45    1
   109    28    34    1
   110    32    58    1
   111    33    46    2
   112    36    51    1
   113    36    66    1
   114    37    52    1
   115    37    67    1
   116    38    53    1
   117    38    68    1
   118    42    48    1
   119    42    72    1
   120    43    44    2
   121    60    73    1
   122    61    74    1
   123    39    69    1
   124    39    57    1
   125    40    70    1
   126    40    50    1
   127    41    71    1
   128    41    49    1
