@<TRIPOS>MOLECULE
*****
 123 128 0 0 0
SMALL
GASTEIGER

@<TRIPOS>ATOM
     1 C         4.993729   2.188457   0.53145 C.3        1 UNL1     0.0009
     2 C         6.397332   3.037751   -0.332051 C.2        1 UNL1     -0.0787
     3 C         7.711965   2.992093   -0.936783 C.2        1 UNL1     -0.0649
     4 C         8.519536   4.227832   -1.765721 C.2        1 UNL1     -0.0542
     5 C         9.554097   4.524403   -2.687027 C.2        1 UNL1     0.0115
     6 C         10.767738   3.9251   -3.449415 C.3        1 UNL1     -0.0348
     7 C         9.55598   5.95274   -3.419721 C.2        1 UNL1     0.2441
     8 O         10.292194   6.870908   -3.085832 O.2        1 UNL1     -0.2702
     9 N         8.845564   5.993726   -4.632066 N.am        1 UNL1     -0.2772
     10 C         7.522671   6.295429   -4.403481 C.2        1 UNL1     0.1049
     11 C         6.746307   5.284299   -4.058379 C.2        1 UNL1     0.0801
     12 C         6.034883   7.901124   -3.192876 C.ar        1 UNL1     0.0753
     13 C         5.350511   6.755391   -2.675635 C.ar        1 UNL1     0.0305
     14 C         5.602604   5.413736   -3.196656 C.2        1 UNL1     0.0924
     15 N         6.983786   3.96183   -4.09311 N.pl3        1 UNL1     -0.3170
     16 C         5.753893   3.286049   -3.775404 C.3        1 UNL1     0.1275
     17 N         4.99786   4.264383   -2.909955 N.2        1 UNL1     -0.2557
     18 C         4.957572   3.163499   -5.070995 C.3        1 UNL1     0.0016
     19 C         5.816285   2.451612   -6.104155 C.3        1 UNL1     0.0026
     20 N         6.179794   1.139779   -5.586483 N.3        1 UNL1     -0.3018
     21 C         6.896368   1.152044   -4.309479 C.3        1 UNL1     0.0026
     22 C         6.013718   1.867627   -3.285386 C.3        1 UNL1     0.0016
     23 C         6.739644   0.268666   -6.60057 C.3        1 UNL1     0.0012
     24 C         5.654313   -0.161697   -7.599871 C.3        1 UNL1     -0.0339
     25 C         5.894606   -1.592251   -8.109607 C.3        1 UNL1     -0.0615
     26 C         4.279712   -0.01602   -6.970561 C.3        1 UNL1     -0.0615
     27 C         5.703359   9.188496   -2.777082 C.ar        1 UNL1     0.1347
     28 C         4.682779   9.457019   -1.882453 C.ar        1 UNL1     0.0342
     29 C         4.055593   8.310804   -1.349542 C.ar        1 UNL1     0.1435
     30 C         4.401443   7.013399   -1.729476 C.ar        1 UNL1     0.0774
     31 O         2.970986   8.408365   -0.550095 O.3        1 UNL1     -0.4436
     32 C         2.359251   7.110984   -0.608882 C.3        1 UNL1     0.3143
     33 C         3.473201   6.165611   -1.010874 C.2        1 UNL1     0.2504
     34 C         4.106637   10.812972   -1.583204 C.3        1 UNL1     -0.0327
     35 O         1.975713   6.759979   0.726388 O.2        1 UNL1     -0.4528
     36 C         -1.077887   4.532002   0.380356 C.3        1 UNL1     0.0854
     37 C         -1.238379   3.177549   -0.411616 C.3        1 UNL1     0.0236
     38 C         -1.769626   1.942423   0.462446 C.3        1 UNL1     0.1131
     39 C         -1.063158   1.589017   1.832949 C.3        1 UNL1     0.0200
     40 C         0.600759   1.589385   1.950497 C.3        1 UNL1     0.0661
     41 C         1.671788   0.807311   0.892733 C.3        1 UNL1     0.0091
     42 C         3.368142   1.263964   0.364288 C.3        1 UNL1     0.0661
     43 C         7.048786   7.679379   -4.253579 C.2        1 UNL1     0.2131
     44 O         7.406605   8.543098   -5.033766 O.2        1 UNL1     -0.2851
     45 O         6.448761   10.245676   -3.294949 O.3        1 UNL1     -0.5056
     46 O         3.58109   4.983517   -0.772406 O.2        1 UNL1     -0.2836
     47 C         5.357747   1.919511   2.016421 C.3        1 UNL1     -0.0566
     48 O         3.925842   -0.091594   0.589122 O.3        1 UNL1     -0.3909
     49 C         0.916688   0.398851   -0.352449 C.3        1 UNL1     -0.0577
     50 O         1.081339   2.883136   2.255413 O.3        1 UNL1     -0.3910
     51 O         -1.249429   4.452808   1.777401 O.3        1 UNL1     -0.3753
     52 C         -0.132882   3.007997   -1.504355 C.3        1 UNL1     -0.0564
     53 O         -2.244044   0.782435   -0.363194 O.3        1 UNL1     -0.4608
     54 C         -2.552344   -0.462947   0.11837 C.2        1 UNL1     0.3042
     55 O         -1.865448   -1.481417   0.049583 O.2        1 UNL1     -0.2512
     56 C         -3.862898   -0.517109   0.850647 C.3        1 UNL1     0.0332
     57 C         -1.892971   2.30022   3.000757 C.3        1 UNL1     -0.0567
     58 C         1.31822   7.169593   -1.750963 C.3        1 UNL1     0.0210
     59 C         -2.458733   5.030912   2.266529 C.3        1 UNL1     0.0372
     60 C         0.204642   5.249682   0.145374 C.2        1 UNL1     -0.0208
     61 C         1.038554   5.834134   1.006623 C.2        1 UNL1     0.0882
     62 H         4.435826   3.132427   0.512023 H        1 UNL1     0.0365
     63 H         6.041701   4.070222   -0.331738 H        1 UNL1     0.0576
     64 H         8.25637   2.052262   -1.052749 H        1 UNL1     0.0615
     65 H         7.944285   5.1249   -1.521103 H        1 UNL1     0.0622
     66 H         -1.865893   5.183034   -0.023686 H        1 UNL1     0.0645
     67 H         -2.097463   3.358454   -1.080801 H        1 UNL1     0.0362
     68 H         -2.764148   2.325782   0.737191 H        1 UNL1     0.0741
     69 H         -1.319874   0.573946   2.10523 H        1 UNL1     0.0359
     70 H         0.72561   1.019188   2.890894 H        1 UNL1     0.0600
     71 H         1.778809   -0.165936   1.410704 H        1 UNL1     0.0348
     72 H         3.178346   1.823825   1.291569 H        1 UNL1     0.0602
     73 H         0.35322   5.366374   -0.899402 H        1 UNL1     0.0628
     74 H         0.989463   5.715524   2.089564 H        1 UNL1     0.1022
     75 H         11.476992   3.438896   -2.736956 H        1 UNL1     0.0279
     76 H         10.551842   3.12159   -4.150008 H        1 UNL1     0.0279
     77 H         11.408887   4.696057   -3.90136 H        1 UNL1     0.0279
     78 H         8.878537   5.079759   -5.078895 H        1 UNL1     0.1553
     79 H         7.70912   3.540474   -4.643821 H        1 UNL1     0.1484
     80 H         4.031577   2.6111   -4.87061 H        1 UNL1     0.0317
     81 H         4.659948   4.15006   -5.442166 H        1 UNL1     0.0317
     82 H         6.710966   3.036847   -6.36292 H        1 UNL1     0.0428
     83 H         5.230014   2.37649   -7.020502 H        1 UNL1     0.0428
     84 H         7.086931   0.153571   -3.903833 H        1 UNL1     0.0428
     85 H         7.896758   1.596064   -4.406346 H        1 UNL1     0.0428
     86 H         6.506873   1.74112   -2.339457 H        1 UNL1     0.0317
     87 H         5.071703   1.320945   -3.155602 H        1 UNL1     0.0317
     88 H         7.512188   0.82885   -7.143401 H        1 UNL1     0.0429
     89 H         7.231312   -0.603188   -6.150118 H        1 UNL1     0.0429
     90 H         5.664865   0.521053   -8.457749 H        1 UNL1     0.0308
     91 H         6.1323   -2.273016   -7.286708 H        1 UNL1     0.0233
     92 H         5.01629   -1.965449   -8.641484 H        1 UNL1     0.0233
     93 H         6.728631   -1.648023   -8.819626 H        1 UNL1     0.0233
     94 H         3.557643   -0.65702   -7.487833 H        1 UNL1     0.0233
     95 H         4.314169   -0.324882   -5.922048 H        1 UNL1     0.0233
     96 H         3.924368   1.016924   -7.022776 H        1 UNL1     0.0233
     97 H         4.799795   11.436329   -1.026258 H        1 UNL1     0.0280
     98 H         3.867609   11.371973   -2.497337 H        1 UNL1     0.0280
     99 H         3.1872   10.699628   -0.985806 H        1 UNL1     0.0280
     100 H         7.381192   10.128106   -3.24626 H        1 UNL1     0.2922
     101 H         4.71724   1.133235   2.41539 H        1 UNL1     0.0236
     102 H         5.335034   2.817616   2.63276 H        1 UNL1     0.0236
     103 H         6.382941   1.528497   2.127233 H        1 UNL1     0.0236
     104 H         3.838634   -0.588916   -0.24756 H        1 UNL1     0.2098
     105 H         0.685092   1.219542   -1.02672 H        1 UNL1     0.0234
     106 H         1.361977   -0.429052   -0.90401 H        1 UNL1     0.0234
     107 H         0.0   -0.0   0.0 H        1 UNL1     0.0234
     108 H         2.052771   2.820676   2.334071 H        1 UNL1     0.2098
     109 H         -0.165504   3.808321   -2.25677 H        1 UNL1     0.0234
     110 H         0.877499   2.938213   -1.087215 H        1 UNL1     0.0234
     111 H         -0.255849   2.070217   -2.062382 H        1 UNL1     0.0234
     112 H         -4.422777   -1.406636   0.546305 H        1 UNL1     0.0342
     113 H         -3.729753   -0.489957   1.9311 H        1 UNL1     0.0342
     114 H         -4.451941   0.365456   0.565566 H        1 UNL1     0.0342
     115 H         -1.356609   2.270693   3.95921 H        1 UNL1     0.0234
     116 H         -2.142621   3.343231   2.796183 H        1 UNL1     0.0234
     117 H         -2.825847   1.771723   3.262244 H        1 UNL1     0.0234
     118 H         0.282524   7.132986   -1.370177 H        1 UNL1     0.0309
     119 H         1.433129   8.049178   -2.392312 H        1 UNL1     0.0309
     120 H         1.373863   6.300434   -2.415472 H        1 UNL1     0.0309
     121 H         -2.287249   5.328365   3.300681 H        1 UNL1     0.0524
     122 H         -2.747538   5.934755   1.704661 H        1 UNL1     0.0524
     123 H         -3.268737   4.308983   2.213542 H        1 UNL1     0.0524
@<TRIPOS>BOND
     1     1     2    1
     2     1    42    1
     3     2     3    2
     4     3     4    1
     5     4     5    2
     6     5     7    1
     7     6    75    1
     8     6    76    1
     9     6    77    1
    10     7     9   am
    11     9    10    1
    12    10    11    2
    13    10    43    1
    14    11    14    1
    15    11    15    1
    16    12    13   ar
    17    12    27   ar
    18    12    43    1
    19    13    14    1
    20    13    30   ar
    21    14    17    2
    22    15    16    1
    23    16    17    1
    24    16    18    1
    25    16    22    1
    26    18    19    1
    27    19    20    1
    28    20    21    1
    29    21    22    1
    30    23    24    1
    31    23    88    1
    32    23    89    1
    33    24    25    1
    34    24    26    1
    35    24    90    1
    36    25    91    1
    37    25    92    1
    38    25    93    1
    39    26    94    1
    40    26    95    1
    41    26    96    1
    42    27    28   ar
    43    28    29   ar
    44    29    30   ar
    45    29    31    1
    46    30    33    1
    47    31    32    1
    48    32    33    1
    49    32    35    1
    50    34    97    1
    51    34    98    1
    52    34    99    1
    53    35    61    1
    54    36    37    1
    55    36    60    1
    56    37    38    1
    57    38    39    1
    58    39    40    1
    59    40    41    1
    60    41    42    1
    61    45   100    1
    62    47   101    1
    63    47   102    1
    64    47   103    1
    65    48   104    1
    66    49   105    1
    67    49   106    1
    68    49   107    1
    69    50   108    1
    70    51    59    1
    71    52   109    1
    72    52   110    1
    73    52   111    1
    74    53    54    1
    75    54    55    2
    76    54    56    1
    77    56   112    1
    78    56   113    1
    79    56   114    1
    80    57   115    1
    81    57   116    1
    82    57   117    1
    83    58   118    1
    84    58   119    1
    85    58   120    1
    86    59   121    1
    87    59   122    1
    88    59   123    1
    89    60    61    2
    90     1    47    1
    91     1    62    1
    92     2    63    1
    93     3    64    1
    94     4    65    1
    95     5     6    1
    96     7     8    2
    97     9    78    1
    98    15    79    1
    99    18    80    1
   100    18    81    1
   101    19    82    1
   102    19    83    1
   103    20    23    1
   104    21    84    1
   105    21    85    1
   106    22    86    1
   107    22    87    1
   108    27    45    1
   109    28    34    1
   110    32    58    1
   111    33    46    2
   112    36    51    1
   113    36    66    1
   114    37    52    1
   115    37    67    1
   116    38    53    1
   117    38    68    1
   118    42    48    1
   119    42    72    1
   120    43    44    2
   121    60    73    1
   122    61    74    1
   123    39    69    1
   124    39    57    1
   125    40    70    1
   126    40    50    1
   127    41    71    1
   128    41    49    1
