@<TRIPOS>MOLECULE
*****
 123 128 0 0 0
SMALL
GASTEIGER

@<TRIPOS>ATOM
     1 C         5.182119   1.714164   0.454488 C.3        1 UNL1     0.0009
     2 C         6.618859   2.508504   -0.406813 C.2        1 UNL1     -0.0787
     3 C         7.895751   2.400038   -1.08048 C.2        1 UNL1     -0.0649
     4 C         8.776835   3.627444   -1.844367 C.2        1 UNL1     -0.0542
     5 C         9.792833   3.911017   -2.7901 C.2        1 UNL1     0.0115
     6 C         10.911145   3.275936   -3.661521 C.3        1 UNL1     -0.0348
     7 C         9.894503   5.392266   -3.400472 C.2        1 UNL1     0.2441
     8 O         10.72642   6.209025   -3.029871 O.2        1 UNL1     -0.2702
     9 N         9.138259   5.601872   -4.566796 N.am        1 UNL1     -0.2772
     10 C         7.860268   5.99807   -4.245724 C.2        1 UNL1     0.1049
     11 C         7.009697   5.033148   -3.946262 C.2        1 UNL1     0.0801
     12 C         6.582008   7.616686   -2.830285 C.ar        1 UNL1     0.0753
     13 C         5.818078   6.495003   -2.375479 C.ar        1 UNL1     0.0305
     14 C         5.921891   5.187135   -3.018716 C.2        1 UNL1     0.0924
     15 N         7.122146   3.703015   -4.103197 N.pl3        1 UNL1     -0.3170
     16 C         5.850226   3.113299   -3.779612 C.3        1 UNL1     0.1275
     17 N         5.226691   4.075018   -2.797763 N.2        1 UNL1     -0.2557
     18 C         4.989747   3.175519   -5.037947 C.3        1 UNL1     0.0016
     19 C         5.732674   2.483797   -6.169835 C.3        1 UNL1     0.0026
     20 N         5.995782   1.104702   -5.782666 N.3        1 UNL1     -0.3018
     21 C         6.76592   0.941726   -4.547881 C.3        1 UNL1     0.0026
     22 C         5.999126   1.640024   -3.42347 C.3        1 UNL1     0.0016
     23 C         6.427536   0.27972   -6.893358 C.3        1 UNL1     0.0012
     24 C         5.264149   0.036098   -7.867491 C.3        1 UNL1     -0.0339
     25 C         5.289165   1.036554   -9.03476 C.3        1 UNL1     -0.0615
     26 C         5.29049   -1.399918   -8.3614 C.3        1 UNL1     -0.0615
     27 C         6.389532   8.886925   -2.292175 C.ar        1 UNL1     0.1347
     28 C         5.438507   9.165159   -1.326676 C.ar        1 UNL1     0.0342
     29 C         4.732109   8.036575   -0.859277 C.ar        1 UNL1     0.1435
     30 C         4.939485   6.751974   -1.363275 C.ar        1 UNL1     0.0774
     31 O         3.6974   8.159167   0.000582 O.3        1 UNL1     -0.4436
     32 C         2.966358   6.93105   -0.134249 C.3        1 UNL1     0.3143
     33 C         3.969372   5.929828   -0.670655 C.2        1 UNL1     0.2504
     34 C         5.00391   10.535265   -0.88618 C.3        1 UNL1     -0.0327
     35 O         2.611148   6.499701   1.185226 O.2        1 UNL1     -0.4528
     36 C         -0.647595   4.589078   0.813466 C.3        1 UNL1     0.0854
     37 C         -0.967305   3.328687   -0.079128 C.3        1 UNL1     0.0236
     38 C         -1.571476   2.073528   0.715414 C.3        1 UNL1     0.1131
     39 C         -0.84108   1.540424   2.013333 C.3        1 UNL1     0.0200
     40 C         0.8193   1.383512   2.04422 C.3        1 UNL1     0.0661
     41 C         1.765856   0.605547   0.871014 C.3        1 UNL1     0.0091
     42 C         3.472255   0.95509   0.29532 C.3        1 UNL1     0.0661
     43 C         7.523406   7.400001   -3.956818 C.2        1 UNL1     0.2131
     44 O         7.924857   8.293736   -4.679875 O.2        1 UNL1     -0.2851
     45 O         7.205956   9.915406   -2.758133 O.3        1 UNL1     -0.5056
     46 O         3.97791   4.726499   -0.537315 O.2        1 UNL1     -0.2836
     47 C         5.58471   1.28509   1.89108 C.3        1 UNL1     -0.0566
     48 O         3.911606   -0.458896   0.37737 O.3        1 UNL1     -0.3909
     49 C         0.922168   0.376022   -0.363087 C.3        1 UNL1     -0.0577
     50 O         1.430372   2.598056   2.430482 O.3        1 UNL1     -0.3910
     51 O         -0.764078   4.403291   2.20607 O.3        1 UNL1     -0.3753
     52 C         0.068622   3.158506   -1.237939 C.3        1 UNL1     -0.0564
     53 O         -2.186966   1.036772   -0.178249 O.3        1 UNL1     -0.4608
     54 C         -2.415749   -0.271026   0.16124 C.2        1 UNL1     0.3042
     55 O         -1.853071   -1.268699   -0.288071 O.2        1 UNL1     -0.2512
     56 C         -3.439261   -0.440096   1.247772 C.3        1 UNL1     0.0332
     57 C         -1.549395   2.217122   3.277668 C.3        1 UNL1     -0.0567
     58 C         1.885958   7.181193   -1.212068 C.3        1 UNL1     0.0210
     59 C         -1.095391   5.579878   2.942101 C.3        1 UNL1     0.0372
     60 C         0.684198   5.208472   0.572968 C.2        1 UNL1     -0.0208
     61 C         1.605657   5.639287   1.435555 C.2        1 UNL1     0.0882
     62 H         4.713557   2.701786   0.542606 H        1 UNL1     0.0365
     63 H         6.360556   3.564343   -0.302154 H        1 UNL1     0.0576
     64 H         8.34531   1.429574   -1.302296 H        1 UNL1     0.0615
     65 H         8.2983   4.546935   -1.496481 H        1 UNL1     0.0622
     66 H         -1.389057   5.340049   0.506347 H        1 UNL1     0.0645
     67 H         -1.834599   3.642685   -0.685565 H        1 UNL1     0.0362
     68 H         -2.513242   2.517697   1.072223 H        1 UNL1     0.0741
     69 H         -1.178301   0.532067   2.213099 H        1 UNL1     0.0359
     70 H         0.932167   0.72435   2.926164 H        1 UNL1     0.0600
     71 H         1.805137   -0.414961   1.29994 H        1 UNL1     0.0348
     72 H         3.376017   1.446151   1.274561 H        1 UNL1     0.0602
     73 H         0.796807   5.402639   -0.464754 H        1 UNL1     0.0628
     74 H         1.593516   5.431085   2.505948 H        1 UNL1     0.1022
     75 H         10.948991   2.170713   -3.506329 H        1 UNL1     0.0279
     76 H         10.791177   3.357152   -4.739519 H        1 UNL1     0.0279
     77 H         11.920367   3.574408   -3.342012 H        1 UNL1     0.0279
     78 H         9.066906   4.731228   -5.089256 H        1 UNL1     0.1553
     79 H         7.780483   3.269094   -4.723874 H        1 UNL1     0.1484
     80 H         4.02637   2.691658   -4.836577 H        1 UNL1     0.0317
     81 H         4.768554   4.213217   -5.309806 H        1 UNL1     0.0317
     82 H         6.665366   3.008119   -6.42495 H        1 UNL1     0.0428
     83 H         5.102214   2.541306   -7.057677 H        1 UNL1     0.0428
     84 H         6.881031   -0.101353   -4.237163 H        1 UNL1     0.0428
     85 H         7.797837   1.302411   -4.659103 H        1 UNL1     0.0428
     86 H         6.519621   1.388088   -2.518152 H        1 UNL1     0.0317
     87 H         5.017236   1.169435   -3.291055 H        1 UNL1     0.0317
     88 H         7.223917   0.814854   -7.426934 H        1 UNL1     0.0429
     89 H         6.855846   -0.668247   -6.543095 H        1 UNL1     0.0429
     90 H         4.315474   0.150544   -7.329783 H        1 UNL1     0.0308
     91 H         6.235467   0.986086   -9.581631 H        1 UNL1     0.0233
     92 H         4.464953   0.844644   -9.725741 H        1 UNL1     0.0233
     93 H         5.171033   2.073743   -8.698429 H        1 UNL1     0.0233
     94 H         4.587993   -1.526515   -9.192247 H        1 UNL1     0.0233
     95 H         6.290846   -1.651901   -8.72438 H        1 UNL1     0.0233
     96 H         5.016351   -2.100113   -7.567332 H        1 UNL1     0.0233
     97 H         4.215005   10.492582   -0.141171 H        1 UNL1     0.0280
     98 H         5.823557   11.100709   -0.423894 H        1 UNL1     0.0280
     99 H         4.628561   11.100457   -1.754952 H        1 UNL1     0.0280
     100 H         6.742049   10.668514   -3.079444 H        1 UNL1     0.2922
     101 H         4.722186   0.858523   2.402695 H        1 UNL1     0.0236
     102 H         6.044728   2.088571   2.465349 H        1 UNL1     0.0236
     103 H         6.33539   0.477219   1.886938 H        1 UNL1     0.0236
     104 H         4.335854   -0.585862   1.248498 H        1 UNL1     0.2098
     105 H         0.712046   1.275041   -0.937043 H        1 UNL1     0.0234
     106 H         1.281908   -0.415966   -1.019798 H        1 UNL1     0.0234
     107 H         0.0   -0.0   0.0 H        1 UNL1     0.0234
     108 H         1.231918   3.25614   1.736717 H        1 UNL1     0.2098
     109 H         1.095068   3.038795   -0.864053 H        1 UNL1     0.0234
     110 H         -0.173861   2.331542   -1.914012 H        1 UNL1     0.0234
     111 H         0.091707   4.039719   -1.892826 H        1 UNL1     0.0234
     112 H         -3.567913   -1.502544   1.475803 H        1 UNL1     0.0342
     113 H         -3.182556   0.123465   2.14351 H        1 UNL1     0.0342
     114 H         -4.399768   -0.056508   0.877028 H        1 UNL1     0.0342
     115 H         -2.620437   1.976316   3.323168 H        1 UNL1     0.0234
     116 H         -1.108723   1.936465   4.236359 H        1 UNL1     0.0234
     117 H         -1.580717   3.319109   3.226822 H        1 UNL1     0.0234
     118 H         0.99092   7.675208   -0.795099 H        1 UNL1     0.0309
     119 H         2.253934   7.764756   -2.061921 H        1 UNL1     0.0309
     120 H         1.488263   6.251007   -1.632423 H        1 UNL1     0.0309
     121 H         -0.287092   6.296569   2.799399 H        1 UNL1     0.0524
     122 H         -2.024649   6.05133   2.581197 H        1 UNL1     0.0524
     123 H         -1.205957   5.344699   3.99688 H        1 UNL1     0.0524
@<TRIPOS>BOND
     1     1     2    1
     2     1    42    1
     3     2     3    2
     4     3     4    1
     5     4     5    2
     6     5     7    1
     7     6    75    1
     8     6    76    1
     9     6    77    1
    10     7     9   am
    11     9    10    1
    12    10    11    2
    13    10    43    1
    14    11    14    1
    15    11    15    1
    16    12    13   ar
    17    12    27   ar
    18    12    43    1
    19    13    14    1
    20    13    30   ar
    21    14    17    2
    22    15    16    1
    23    16    17    1
    24    16    18    1
    25    16    22    1
    26    18    19    1
    27    19    20    1
    28    20    21    1
    29    21    22    1
    30    23    24    1
    31    23    88    1
    32    23    89    1
    33    24    25    1
    34    24    26    1
    35    24    90    1
    36    25    91    1
    37    25    92    1
    38    25    93    1
    39    26    94    1
    40    26    95    1
    41    26    96    1
    42    27    28   ar
    43    28    29   ar
    44    29    30   ar
    45    29    31    1
    46    30    33    1
    47    31    32    1
    48    32    33    1
    49    32    35    1
    50    34    97    1
    51    34    98    1
    52    34    99    1
    53    35    61    1
    54    36    37    1
    55    36    60    1
    56    37    38    1
    57    38    39    1
    58    39    40    1
    59    40    41    1
    60    41    42    1
    61    45   100    1
    62    47   101    1
    63    47   102    1
    64    47   103    1
    65    48   104    1
    66    49   105    1
    67    49   106    1
    68    49   107    1
    69    50   108    1
    70    51    59    1
    71    52   109    1
    72    52   110    1
    73    52   111    1
    74    53    54    1
    75    54    55    2
    76    54    56    1
    77    56   112    1
    78    56   113    1
    79    56   114    1
    80    57   115    1
    81    57   116    1
    82    57   117    1
    83    58   118    1
    84    58   119    1
    85    58   120    1
    86    59   121    1
    87    59   122    1
    88    59   123    1
    89    60    61    2
    90     1    47    1
    91     1    62    1
    92     2    63    1
    93     3    64    1
    94     4    65    1
    95     5     6    1
    96     7     8    2
    97     9    78    1
    98    15    79    1
    99    18    80    1
   100    18    81    1
   101    19    82    1
   102    19    83    1
   103    20    23    1
   104    21    84    1
   105    21    85    1
   106    22    86    1
   107    22    87    1
   108    27    45    1
   109    28    34    1
   110    32    58    1
   111    33    46    2
   112    36    51    1
   113    36    66    1
   114    37    52    1
   115    37    67    1
   116    38    53    1
   117    38    68    1
   118    42    48    1
   119    42    72    1
   120    43    44    2
   121    60    73    1
   122    61    74    1
   123    39    69    1
   124    39    57    1
   125    40    70    1
   126    40    50    1
   127    41    71    1
   128    41    49    1
