@<TRIPOS>MOLECULE
*****
 123 128 0 0 0
SMALL
GASTEIGER

@<TRIPOS>ATOM
     1 C         -2.191674   2.235938   -2.686809 C.3        1 UNL1     0.0009
     2 C         -3.893855   2.933793   -2.45743 C.2        1 UNL1     -0.0787
     3 C         -5.326655   2.836034   -2.640663 C.2        1 UNL1     -0.0649
     4 C         -6.526122   3.86407   -2.031746 C.2        1 UNL1     -0.0542
     5 C         -7.902858   3.985386   -1.720365 C.2        1 UNL1     0.0115
     6 C         -9.291015   3.30555   -1.875826 C.3        1 UNL1     -0.0348
     7 C         -8.374952   5.156897   -0.729569 C.2        1 UNL1     0.2441
     8 O         -8.90045   6.189332   -1.122578 O.2        1 UNL1     -0.2702
     9 N         -8.383903   4.808549   0.632314 N.am        1 UNL1     -0.2772
     10 C         -7.152746   5.049301   1.197657 C.2        1 UNL1     0.1049
     11 C         -6.241364   4.108242   1.030285 C.2        1 UNL1     0.0801
     12 C         -5.370634   6.792755   1.402056 C.ar        1 UNL1     0.0753
     13 C         -4.441507   5.776912   1.010396 C.ar        1 UNL1     0.0305
     14 C         -4.830482   4.370218   0.939962 C.2        1 UNL1     0.0924
     15 N         -6.372005   2.85042   0.574934 N.pl3        1 UNL1     -0.3170
     16 C         -5.108226   2.185664   0.751613 C.3        1 UNL1     0.1275
     17 N         -4.086618   3.29512   0.695509 N.2        1 UNL1     -0.2557
     18 C         -5.074487   1.650767   2.180055 C.3        1 UNL1     0.0016
     19 C         -6.287783   0.759992   2.394586 C.3        1 UNL1     0.0026
     20 N         -6.246656   -0.327507   1.426761 N.3        1 UNL1     -0.3018
     21 C         -6.213795   0.089933   0.023539 C.3        1 UNL1     0.0026
     22 C         -4.984811   0.979799   -0.170453 C.3        1 UNL1     0.0016
     23 C         -7.182735   -1.390776   1.733122 C.3        1 UNL1     0.0012
     24 C         -6.72916   -2.164765   2.980907 C.3        1 UNL1     -0.0339
     25 C         -7.784472   -2.100114   4.097237 C.3        1 UNL1     -0.0615
     26 C         -6.39413   -3.599176   2.610775 C.3        1 UNL1     -0.0615
     27 C         -4.963205   8.11226   1.583783 C.ar        1 UNL1     0.1347
     28 C         -3.650865   8.526814   1.442507 C.ar        1 UNL1     0.0342
     29 C         -2.76284   7.519529   1.008972 C.ar        1 UNL1     0.1435
     30 C         -3.163656   6.20131   0.787919 C.ar        1 UNL1     0.0774
     31 O         -1.432147   7.739006   0.930904 O.3        1 UNL1     -0.4436
     32 C         -0.847664   6.427804   0.931755 C.3        1 UNL1     0.3143
     33 C         -1.943318   5.505361   0.436926 C.2        1 UNL1     0.2504
     34 C         -3.09736   9.860098   1.862134 C.3        1 UNL1     -0.0327
     35 O         0.184245   6.420766   -0.062411 O.2        1 UNL1     -0.4528
     36 C         2.783127   3.935388   1.152823 C.3        1 UNL1     0.0854
     37 C         2.611565   2.408583   1.509134 C.3        1 UNL1     0.0236
     38 C         3.596689   1.416434   0.723694 C.3        1 UNL1     0.1131
     39 C         3.710867   1.507671   -0.851396 C.3        1 UNL1     0.0200
     40 C         2.342057   1.678827   -1.789213 C.3        1 UNL1     0.0661
     41 C         0.938803   0.731811   -1.681279 C.3        1 UNL1     0.0091
     42 C         -0.817471   1.168311   -1.9819 C.3        1 UNL1     0.0661
     43 C         -6.764845   6.377528   1.695351 C.2        1 UNL1     0.2131
     44 O         -7.527849   7.024435   2.389666 O.2        1 UNL1     -0.2851
     45 O         -5.938958   9.048108   1.920732 O.3        1 UNL1     -0.5056
     46 O         -1.833526   4.445322   -0.137632 O.2        1 UNL1     -0.2836
     47 C         -1.731132   2.410572   -4.159013 C.3        1 UNL1     -0.0566
     48 O         -1.088861   -0.024205   -2.820571 O.3        1 UNL1     -0.3909
     49 C         0.982418   -0.06018   -0.393513 C.3        1 UNL1     -0.0577
     50 O         1.995492   3.04225   -1.925941 O.3        1 UNL1     -0.3910
     51 O         3.645742   4.223452   0.07563 O.3        1 UNL1     -0.3753
     52 C         1.118852   2.042385   1.796631 C.3        1 UNL1     -0.0564
     53 O         3.664167   0.040786   1.319818 O.3        1 UNL1     -0.4608
     54 C         3.76576   -1.128328   0.61216 C.2        1 UNL1     0.3042
     55 O         2.870282   -1.938144   0.375187 O.2        1 UNL1     -0.2512
     56 C         5.133701   -1.36762   0.039281 C.3        1 UNL1     0.0332
     57 C         4.967818   2.436669   -1.190824 C.3        1 UNL1     -0.0567
     58 C         -0.538281   6.087772   2.408302 C.3        1 UNL1     0.0210
     59 C         4.892777   4.809317   0.446482 C.3        1 UNL1     0.0372
     60 C         1.513314   4.667123   0.893402 C.2        1 UNL1     -0.0208
     61 C         1.194849   5.530499   -0.071951 C.2        1 UNL1     0.0882
     62 H         -1.787447   3.08935   -2.129135 H        1 UNL1     0.0365
     63 H         -3.659336   3.894317   -1.993896 H        1 UNL1     0.0576
     64 H         -5.788377   1.948797   -3.079675 H        1 UNL1     0.0615
     65 H         -5.969605   4.742562   -1.694071 H        1 UNL1     0.0622
     66 H         3.209597   4.384494   2.060829 H        1 UNL1     0.0645
     67 H         2.996637   2.329097   2.540619 H        1 UNL1     0.0362
     68 H         4.563775   1.775419   1.107617 H        1 UNL1     0.0741
     69 H         4.139384   0.586513   -1.223216 H        1 UNL1     0.0359
     70 H         2.751913   1.397107   -2.778006 H        1 UNL1     0.0600
     71 H         1.177015   -0.052323   -2.426496 H        1 UNL1     0.0348
     72 H         -0.221811   1.940486   -2.490083 H        1 UNL1     0.0602
     73 H         0.846841   4.5085   1.704512 H        1 UNL1     0.0628
     74 H         1.795435   5.705927   -0.965125 H        1 UNL1     0.1022
     75 H         -9.454999   2.986419   -2.933322 H        1 UNL1     0.0279
     76 H         -9.442049   2.379545   -1.32558 H        1 UNL1     0.0279
     77 H         -10.12633   4.00576   -1.728669 H        1 UNL1     0.0279
     78 H         -8.57645   3.813801   0.729668 H        1 UNL1     0.1553
     79 H         -7.245606   2.357779   0.54238 H        1 UNL1     0.1484
     80 H         -4.139707   1.097944   2.332827 H        1 UNL1     0.0317
     81 H         -5.07538   2.471505   2.90534 H        1 UNL1     0.0317
     82 H         -7.2276   1.325879   2.314415 H        1 UNL1     0.0428
     83 H         -6.244926   0.390825   3.419734 H        1 UNL1     0.0428
     84 H         -6.102651   -0.741833   -0.679044 H        1 UNL1     0.0428
     85 H         -7.152395   0.573068   -0.281305 H        1 UNL1     0.0428
     86 H         -4.918836   1.155837   -1.228113 H        1 UNL1     0.0317
     87 H         -4.072546   0.412001   0.049718 H        1 UNL1     0.0317
     88 H         -8.160319   -0.936043   1.940104 H        1 UNL1     0.0429
     89 H         -7.316031   -2.063834   0.876384 H        1 UNL1     0.0429
     90 H         -5.796693   -1.726641   3.356096 H        1 UNL1     0.0308
     91 H         -8.794629   -2.016673   3.685263 H        1 UNL1     0.0233
     92 H         -7.728683   -2.986588   4.733367 H        1 UNL1     0.0233
     93 H         -7.639042   -1.238487   4.760023 H        1 UNL1     0.0233
     94 H         -5.318187   -3.701903   2.432925 H        1 UNL1     0.0233
     95 H         -6.665824   -4.269838   3.430748 H        1 UNL1     0.0233
     96 H         -6.925157   -3.912682   1.707618 H        1 UNL1     0.0233
     97 H         -2.291596   9.758155   2.582954 H        1 UNL1     0.0280
     98 H         -2.674911   10.417645   1.016005 H        1 UNL1     0.0280
     99 H         -3.897298   10.463846   2.321135 H        1 UNL1     0.0280
     100 H         -6.708854   9.022949   1.38013 H        1 UNL1     0.2922
     101 H         -2.510596   2.055255   -4.832692 H        1 UNL1     0.0236
     102 H         -0.768431   1.944012   -4.3652 H        1 UNL1     0.0236
     103 H         -1.592304   3.471422   -4.426441 H        1 UNL1     0.0236
     104 H         -0.296963   -0.184644   -3.370233 H        1 UNL1     0.2098
     105 H         1.225851   -1.111969   -0.521156 H        1 UNL1     0.0234
     106 H         1.600363   0.378214   0.389993 H        1 UNL1     0.0234
     107 H         0.0   0.0   0.0 H        1 UNL1     0.0234
     108 H         1.055924   3.077678   -2.189996 H        1 UNL1     0.2098
     109 H         0.709521   2.603408   2.648343 H        1 UNL1     0.0234
     110 H         0.468176   2.172815   0.925223 H        1 UNL1     0.0234
     111 H         1.005315   0.981661   2.057246 H        1 UNL1     0.0234
     112 H         5.896751   -1.135124   0.788311 H        1 UNL1     0.0342
     113 H         5.249383   -2.384112   -0.333821 H        1 UNL1     0.0342
     114 H         5.274928   -0.683632   -0.808882 H        1 UNL1     0.0342
     115 H         5.470852   2.121396   -2.115349 H        1 UNL1     0.0234
     116 H         4.722066   3.495317   -1.295321 H        1 UNL1     0.0234
     117 H         5.79012   2.348457   -0.460084 H        1 UNL1     0.0234
     118 H         0.546902   6.069288   2.610892 H        1 UNL1     0.0309
     119 H         -1.023281   6.767207   3.11636 H        1 UNL1     0.0309
     120 H         -0.863984   5.078936   2.684479 H        1 UNL1     0.0309
     121 H         5.275098   5.347309   -0.420554 H        1 UNL1     0.0524
     122 H         4.785244   5.537161   1.267893 H        1 UNL1     0.0524
     123 H         5.595372   4.037874   0.74869 H        1 UNL1     0.0524
@<TRIPOS>BOND
     1     1     2    1
     2     1    42    1
     3     2     3    2
     4     3     4    1
     5     4     5    2
     6     5     7    1
     7     6    75    1
     8     6    76    1
     9     6    77    1
    10     7     9   am
    11     9    10    1
    12    10    11    2
    13    10    43    1
    14    11    14    1
    15    11    15    1
    16    12    13   ar
    17    12    27   ar
    18    12    43    1
    19    13    14    1
    20    13    30   ar
    21    14    17    2
    22    15    16    1
    23    16    17    1
    24    16    18    1
    25    16    22    1
    26    18    19    1
    27    19    20    1
    28    20    21    1
    29    21    22    1
    30    23    24    1
    31    23    88    1
    32    23    89    1
    33    24    25    1
    34    24    26    1
    35    24    90    1
    36    25    91    1
    37    25    92    1
    38    25    93    1
    39    26    94    1
    40    26    95    1
    41    26    96    1
    42    27    28   ar
    43    28    29   ar
    44    29    30   ar
    45    29    31    1
    46    30    33    1
    47    31    32    1
    48    32    33    1
    49    32    35    1
    50    34    97    1
    51    34    98    1
    52    34    99    1
    53    35    61    1
    54    36    37    1
    55    36    60    1
    56    37    38    1
    57    38    39    1
    58    39    40    1
    59    40    41    1
    60    41    42    1
    61    45   100    1
    62    47   101    1
    63    47   102    1
    64    47   103    1
    65    48   104    1
    66    49   105    1
    67    49   106    1
    68    49   107    1
    69    50   108    1
    70    51    59    1
    71    52   109    1
    72    52   110    1
    73    52   111    1
    74    53    54    1
    75    54    55    2
    76    54    56    1
    77    56   112    1
    78    56   113    1
    79    56   114    1
    80    57   115    1
    81    57   116    1
    82    57   117    1
    83    58   118    1
    84    58   119    1
    85    58   120    1
    86    59   121    1
    87    59   122    1
    88    59   123    1
    89    60    61    2
    90     1    47    1
    91     1    62    1
    92     2    63    1
    93     3    64    1
    94     4    65    1
    95     5     6    1
    96     7     8    2
    97     9    78    1
    98    15    79    1
    99    18    80    1
   100    18    81    1
   101    19    82    1
   102    19    83    1
   103    20    23    1
   104    21    84    1
   105    21    85    1
   106    22    86    1
   107    22    87    1
   108    27    45    1
   109    28    34    1
   110    32    58    1
   111    33    46    2
   112    36    51    1
   113    36    66    1
   114    37    52    1
   115    37    67    1
   116    38    53    1
   117    38    68    1
   118    42    48    1
   119    42    72    1
   120    43    44    2
   121    60    73    1
   122    61    74    1
   123    39    69    1
   124    39    57    1
   125    40    70    1
   126    40    50    1
   127    41    71    1
   128    41    49    1
