@<TRIPOS>MOLECULE
*****
 123 128 0 0 0
SMALL
GASTEIGER

@<TRIPOS>ATOM
     1 C         4.198273   -1.626718   0.138842 C.3        1 UNL1     0.0009
     2 C         5.272872   -2.350967   1.464638 C.2        1 UNL1     -0.0787
     3 C         6.170144   -2.178955   2.587742 C.2        1 UNL1     -0.0649
     4 C         6.822998   -3.376336   3.590945 C.2        1 UNL1     -0.0542
     5 C         7.421386   -3.638483   4.84804 C.2        1 UNL1     0.0115
     6 C         8.03703   -2.973486   6.109819 C.3        1 UNL1     -0.0348
     7 C         7.44872   -5.147148   5.395921 C.2        1 UNL1     0.2441
     8 O         8.446688   -5.853268   5.351428 O.2        1 UNL1     -0.2702
     9 N         6.330845   -5.51485   6.164883 N.am        1 UNL1     -0.2772
     10 C         5.329624   -5.999991   5.355244 C.2        1 UNL1     0.1049
     11 C         4.555795   -5.096465   4.781614 C.2        1 UNL1     0.0801
     12 C         4.889601   -7.61381   3.495324 C.ar        1 UNL1     0.0753
     13 C         4.237031   -6.534682   2.818387 C.ar        1 UNL1     0.0305
     14 C         3.934688   -5.276693   3.497433 C.2        1 UNL1     0.0924
     15 N         4.446177   -3.777834   5.017671 N.pl3        1 UNL1     -0.3170
     16 C         3.33873   -3.28342   4.243481 C.3        1 UNL1     0.1275
     17 N         3.256047   -4.218938   3.062086 N.2        1 UNL1     -0.2557
     18 C         2.073103   -3.521461   5.061544 C.3        1 UNL1     0.0016
     19 C         2.238181   -2.854736   6.417943 C.3        1 UNL1     0.0026
     20 N         2.470555   -1.431499   6.214405 N.3        1 UNL1     -0.3018
     21 C         3.632862   -1.103508   5.386255 C.3        1 UNL1     0.0026
     22 C         3.4438   -1.779522   4.027154 C.3        1 UNL1     0.0016
     23 C         2.343625   -0.65925   7.434307 C.3        1 UNL1     0.0012
     24 C         3.662146   -0.67839   8.223542 C.3        1 UNL1     -0.0339
     25 C         4.834653   -1.150845   7.348289 C.3        1 UNL1     -0.0615
     26 C         3.929327   0.690665   8.824445 C.3        1 UNL1     -0.0615
     27 C         5.06595   -8.8507   2.879595 C.ar        1 UNL1     0.1347
     28 C         4.598923   -9.13884   1.609591 C.ar        1 UNL1     0.0342
     29 C         4.003097   -8.046628   0.943837 C.ar        1 UNL1     0.1435
     30 C         3.851892   -6.791472   1.534548 C.ar        1 UNL1     0.0774
     31 O         3.400941   -8.196093   -0.256194 O.3        1 UNL1     -0.4436
     32 C         2.539136   -7.054065   -0.374252 C.3        1 UNL1     0.3143
     33 C         3.136406   -6.010092   0.547486 C.2        1 UNL1     0.2504
     34 C         4.527379   -10.504567   0.985273 C.3        1 UNL1     -0.0327
     35 O         2.672917   -6.555843   -1.711088 O.2        1 UNL1     -0.4528
     36 C         -0.672803   -4.985486   -2.576089 C.3        1 UNL1     0.0854
     37 C         -1.453603   -3.832671   -1.835217 C.3        1 UNL1     0.0236
     38 C         -1.844254   -2.580065   -2.757233 C.3        1 UNL1     0.1131
     39 C         -0.736344   -1.883343   -3.645706 C.3        1 UNL1     0.0200
     40 C         0.777994   -1.573516   -3.018629 C.3        1 UNL1     0.0661
     41 C         1.103751   -0.805779   -1.541445 C.3        1 UNL1     0.0091
     42 C         2.484443   -1.041639   -0.356768 C.3        1 UNL1     0.0661
     43 C         5.292808   -7.400154   4.907427 C.2        1 UNL1     0.2131
     44 O         5.48404   -8.306908   5.697342 O.2        1 UNL1     -0.2851
     45 O         5.751633   -9.833369   3.590678 O.3        1 UNL1     -0.5056
     46 O         3.057979   -4.804308   0.471407 O.2        1 UNL1     -0.2836
     47 C         5.071344   -1.05245   -1.009176 C.3        1 UNL1     -0.0566
     48 O         2.756652   0.408648   -0.20951 O.3        1 UNL1     -0.3909
     49 C         -0.170529   -0.750764   -0.728624 C.3        1 UNL1     -0.0577
     50 O         1.625265   -2.693508   -3.178236 O.3        1 UNL1     -0.3910
     51 O         -0.264164   -4.703575   -3.895548 O.3        1 UNL1     -0.3753
     52 C         -0.970955   -3.659055   -0.358105 C.3        1 UNL1     -0.0564
     53 O         -2.870732   -1.676369   -2.139168 O.3        1 UNL1     -0.4608
     54 C         -4.212843   -1.939443   -2.052794 C.2        1 UNL1     0.3042
     55 O         -5.044611   -1.88366   -2.957719 O.2        1 UNL1     -0.2512
     56 C         -4.649776   -2.395573   -0.689802 C.3        1 UNL1     0.0332
     57 C         -0.820418   -2.52171   -5.109808 C.3        1 UNL1     -0.0567
     58 C         1.163172   -7.484748   0.185002 C.3        1 UNL1     0.0210
     59 C         -0.318133   -5.814001   -4.789923 C.3        1 UNL1     0.0372
     60 C         0.524876   -5.497445   -1.855933 C.2        1 UNL1     -0.0208
     61 C         1.750252   -5.774036   -2.303923 C.2        1 UNL1     0.0882
     62 H         3.916119   -2.643174   -0.16102 H        1 UNL1     0.0365
     63 H         5.197423   -3.414661   1.22941 H        1 UNL1     0.0576
     64 H         6.385349   -1.191646   3.002489 H        1 UNL1     0.0615
     65 H         6.624003   -4.305899   3.050762 H        1 UNL1     0.0622
     66 H         -1.384191   -5.822603   -2.610834 H        1 UNL1     0.0645
     67 H         -2.44551   -4.270693   -1.628296 H        1 UNL1     0.0362
     68 H         -2.518344   -3.079348   -3.469863 H        1 UNL1     0.0741
     69 H         -1.083486   -0.897549   -3.925187 H        1 UNL1     0.0359
     70 H         1.145759   -0.840336   -3.761769 H        1 UNL1     0.0600
     71 H         1.188268   0.244254   -1.883853 H        1 UNL1     0.0348
     72 H         2.829765   -1.461936   -1.312497 H        1 UNL1     0.0602
     73 H         0.250378   -5.760482   -0.864615 H        1 UNL1     0.0628
     74 H         2.127728   -5.485354   -3.285459 H        1 UNL1     0.1022
     75 H         9.048706   -2.559826   5.880838 H        1 UNL1     0.0279
     76 H         7.513365   -2.106146   6.5055 H        1 UNL1     0.0279
     77 H         8.273857   -3.7001   6.900797 H        1 UNL1     0.0279
     78 H         5.964641   -4.697556   6.648622 H        1 UNL1     0.1553
     79 H         4.760243   -3.335094   5.861636 H        1 UNL1     0.1484
     80 H         1.213202   -3.113446   4.516695 H        1 UNL1     0.0317
     81 H         1.884494   -4.592983   5.187711 H        1 UNL1     0.0317
     82 H         3.053905   -3.309895   6.99875 H        1 UNL1     0.0428
     83 H         1.325385   -3.038332   6.985522 H        1 UNL1     0.0428
     84 H         3.738691   -0.033315   5.183031 H        1 UNL1     0.0428
     85 H         4.57617   -1.375978   5.879457 H        1 UNL1     0.0428
     86 H         4.240401   -1.411587   3.407445 H        1 UNL1     0.0317
     87 H         2.541897   -1.391726   3.53799 H        1 UNL1     0.0317
     88 H         2.116025   0.378924   7.159191 H        1 UNL1     0.0429
     89 H         1.508793   -1.019421   8.049211 H        1 UNL1     0.0429
     90 H         3.562227   -1.364124   9.073247 H        1 UNL1     0.0308
     91 H         4.678298   -0.887388   6.297934 H        1 UNL1     0.0233
     92 H         5.774448   -0.712343   7.69196 H        1 UNL1     0.0233
     93 H         4.972595   -2.238207   7.386392 H        1 UNL1     0.0233
     94 H         4.929766   0.719054   9.269589 H        1 UNL1     0.0233
     95 H         3.885523   1.456034   8.044539 H        1 UNL1     0.0233
     96 H         3.198707   0.935307   9.600533 H        1 UNL1     0.0233
     97 H         4.55782   -11.294851   1.729419 H        1 UNL1     0.0280
     98 H         3.595385   -10.655134   0.424939 H        1 UNL1     0.0280
     99 H         5.379747   -10.642186   0.299981 H        1 UNL1     0.0280
     100 H         6.074021   -9.556069   4.430197 H        1 UNL1     0.2922
     101 H         4.888777   0.017191   -1.110133 H        1 UNL1     0.0236
     102 H         4.939949   -1.580647   -1.952959 H        1 UNL1     0.0236
     103 H         6.149115   -1.13292   -0.789793 H        1 UNL1     0.0236
     104 H         1.906581   0.880026   -0.310276 H        1 UNL1     0.2098
     105 H         -1.053623   -0.468823   -1.296485 H        1 UNL1     0.0234
     106 H         -0.371488   -1.643112   -0.135953 H        1 UNL1     0.0234
     107 H         0.0   0.0   0.0 H        1 UNL1     0.0234
     108 H         2.54557   -2.369723   -3.133855 H        1 UNL1     0.2098
     109 H         -0.002802   -4.146424   -0.176826 H        1 UNL1     0.0234
     110 H         -0.918536   -2.611412   -0.042765 H        1 UNL1     0.0234
     111 H         -1.671718   -4.116368   0.353051 H        1 UNL1     0.0234
     112 H         -4.125594   -1.821734   0.080449 H        1 UNL1     0.0342
     113 H         -5.728978   -2.327062   -0.561454 H        1 UNL1     0.0342
     114 H         -4.367159   -3.451008   -0.574261 H        1 UNL1     0.0342
     115 H         -0.462853   -1.824842   -5.880334 H        1 UNL1     0.0234
     116 H         -0.258834   -3.451305   -5.221716 H        1 UNL1     0.0234
     117 H         -1.853789   -2.704903   -5.451168 H        1 UNL1     0.0234
     118 H         1.260549   -8.202407   1.018363 H        1 UNL1     0.0309
     119 H         0.547946   -6.639747   0.510077 H        1 UNL1     0.0309
     120 H         0.562999   -8.031612   -0.550415 H        1 UNL1     0.0309
     121 H         0.388339   -6.561619   -4.430309 H        1 UNL1     0.0524
     122 H         -1.315424   -6.283983   -4.813671 H        1 UNL1     0.0524
     123 H         -0.052273   -5.500071   -5.795339 H        1 UNL1     0.0524
@<TRIPOS>BOND
     1     1     2    1
     2     1    42    1
     3     2     3    2
     4     3     4    1
     5     4     5    2
     6     5     7    1
     7     6    75    1
     8     6    76    1
     9     6    77    1
    10     7     9   am
    11     9    10    1
    12    10    11    2
    13    10    43    1
    14    11    14    1
    15    11    15    1
    16    12    13   ar
    17    12    27   ar
    18    12    43    1
    19    13    14    1
    20    13    30   ar
    21    14    17    2
    22    15    16    1
    23    16    17    1
    24    16    18    1
    25    16    22    1
    26    18    19    1
    27    19    20    1
    28    20    21    1
    29    21    22    1
    30    23    24    1
    31    23    88    1
    32    23    89    1
    33    24    25    1
    34    24    26    1
    35    24    90    1
    36    25    91    1
    37    25    92    1
    38    25    93    1
    39    26    94    1
    40    26    95    1
    41    26    96    1
    42    27    28   ar
    43    28    29   ar
    44    29    30   ar
    45    29    31    1
    46    30    33    1
    47    31    32    1
    48    32    33    1
    49    32    35    1
    50    34    97    1
    51    34    98    1
    52    34    99    1
    53    35    61    1
    54    36    37    1
    55    36    60    1
    56    37    38    1
    57    38    39    1
    58    39    40    1
    59    40    41    1
    60    41    42    1
    61    45   100    1
    62    47   101    1
    63    47   102    1
    64    47   103    1
    65    48   104    1
    66    49   105    1
    67    49   106    1
    68    49   107    1
    69    50   108    1
    70    51    59    1
    71    52   109    1
    72    52   110    1
    73    52   111    1
    74    53    54    1
    75    54    55    2
    76    54    56    1
    77    56   112    1
    78    56   113    1
    79    56   114    1
    80    57   115    1
    81    57   116    1
    82    57   117    1
    83    58   118    1
    84    58   119    1
    85    58   120    1
    86    59   121    1
    87    59   122    1
    88    59   123    1
    89    60    61    2
    90     1    47    1
    91     1    62    1
    92     2    63    1
    93     3    64    1
    94     4    65    1
    95     5     6    1
    96     7     8    2
    97     9    78    1
    98    15    79    1
    99    18    80    1
   100    18    81    1
   101    19    82    1
   102    19    83    1
   103    20    23    1
   104    21    84    1
   105    21    85    1
   106    22    86    1
   107    22    87    1
   108    27    45    1
   109    28    34    1
   110    32    58    1
   111    33    46    2
   112    36    51    1
   113    36    66    1
   114    37    52    1
   115    37    67    1
   116    38    53    1
   117    38    68    1
   118    42    48    1
   119    42    72    1
   120    43    44    2
   121    60    73    1
   122    61    74    1
   123    39    69    1
   124    39    57    1
   125    40    70    1
   126    40    50    1
   127    41    71    1
   128    41    49    1
