@<TRIPOS>MOLECULE
*****
 123 128 0 0 0
SMALL
GASTEIGER

@<TRIPOS>ATOM
     1 C         2.982979   -2.989515   0.365644 C.3        1 UNL1     0.0009
     2 C         4.645093   -3.03542   -0.4543 C.2        1 UNL1     -0.0787
     3 C         5.532929   -3.571317   -1.464551 C.2        1 UNL1     -0.0649
     4 C         7.105725   -3.069454   -1.839789 C.2        1 UNL1     -0.0542
     5 C         8.122861   -3.07764   -2.825916 C.2        1 UNL1     0.0115
     6 C         8.549642   -3.695453   -4.185875 C.3        1 UNL1     -0.0348
     7 C         9.31717   -2.010317   -2.718982 C.2        1 UNL1     0.2441
     8 O         10.431407   -2.297887   -2.303885 O.2        1 UNL1     -0.2702
     9 N         9.077705   -0.790713   -3.375774 N.am        1 UNL1     -0.2772
     10 C         8.434767   0.089035   -2.535538 C.2        1 UNL1     0.1049
     11 C         7.12395   -0.044628   -2.445459 C.2        1 UNL1     0.0801
     12 C         8.53212   1.064664   -0.234233 C.ar        1 UNL1     0.0753
     13 C         7.151887   0.707025   -0.1091 C.ar        1 UNL1     0.0305
     14 C         6.369978   0.25989   -1.259638 C.2        1 UNL1     0.0924
     15 N         6.275337   -0.765112   -3.198643 N.pl3        1 UNL1     -0.3170
     16 C         4.93587   -0.431583   -2.792639 C.3        1 UNL1     0.1275
     17 N         5.071587   -0.014321   -1.348618 N.2        1 UNL1     -0.2557
     18 C         4.53012   0.82328   -3.559704 C.3        1 UNL1     0.0016
     19 C         4.686625   0.555355   -5.048096 C.3        1 UNL1     0.0026
     20 N         3.844138   -0.575853   -5.41088 N.3        1 UNL1     -0.3018
     21 C         4.118366   -1.814878   -4.680137 C.3        1 UNL1     0.0026
     22 C         3.950845   -1.523896   -3.187769 C.3        1 UNL1     0.0016
     23 C         3.687549   -0.72568   -6.843945 C.3        1 UNL1     0.0012
     24 C         2.19917   -0.810314   -7.217204 C.3        1 UNL1     -0.0339
     25 C         1.418865   0.408294   -6.697418 C.3        1 UNL1     -0.0615
     26 C         2.047448   -0.971869   -8.719755 C.3        1 UNL1     -0.0615
     27 C         9.238064   1.604046   0.838534 C.ar        1 UNL1     0.1347
     28 C         8.662844   1.867848   2.068811 C.ar        1 UNL1     0.0342
     29 C         7.316158   1.462393   2.183732 C.ar        1 UNL1     0.1435
     30 C         6.606362   0.887518   1.128777 C.ar        1 UNL1     0.0774
     31 O         6.584645   1.750722   3.282259 O.3        1 UNL1     -0.4436
     32 C         5.220582   1.62311   2.8534 C.3        1 UNL1     0.3143
     33 C         5.268039   0.703354   1.650067 C.2        1 UNL1     0.2504
     34 C         9.283135   2.670761   3.178166 C.3        1 UNL1     -0.0327
     35 O         4.513299   0.924137   3.885116 O.2        1 UNL1     -0.4528
     36 C         0.937952   2.190272   3.737176 C.3        1 UNL1     0.0854
     37 C         -0.074966   2.175618   2.528332 C.3        1 UNL1     0.0236
     38 C         -1.478901   1.462347   2.831576 C.3        1 UNL1     0.1131
     39 C         -1.502596   0.012912   3.464701 C.3        1 UNL1     0.0200
     40 C         -0.465463   -1.169137   2.908327 C.3        1 UNL1     0.0661
     41 C         -0.224088   -1.59509   1.284162 C.3        1 UNL1     0.0091
     42 C         1.275742   -2.210468   0.425546 C.3        1 UNL1     0.0661
     43 C         9.163223   0.925505   -1.570124 C.2        1 UNL1     0.2131
     44 O         10.161342   1.534736   -1.909731 O.2        1 UNL1     -0.2851
     45 O         10.589815   1.882269   0.646702 O.3        1 UNL1     -0.5056
     46 O         4.403455   -0.032502   1.229517 O.2        1 UNL1     -0.2836
     47 C         2.789492   -4.241566   1.262813 C.3        1 UNL1     -0.0566
     48 O         0.566458   -3.315111   -0.264235 O.3        1 UNL1     -0.3909
     49 C         -0.828291   -0.523954   0.403764 C.3        1 UNL1     -0.0577
     50 O         0.776296   -1.103067   3.580186 O.3        1 UNL1     -0.3910
     51 O         0.562242   1.432368   4.864942 O.3        1 UNL1     -0.3753
     52 C         0.658549   2.017463   1.156511 C.3        1 UNL1     -0.0564
     53 O         -2.538068   1.763301   1.811813 O.3        1 UNL1     -0.4608
     54 C         -2.522079   1.353741   0.504168 C.2        1 UNL1     0.3042
     55 O         -3.310392   1.668156   -0.386643 O.2        1 UNL1     -0.2512
     56 C         -1.35756   0.467084   0.165868 C.3        1 UNL1     0.0332
     57 C         -1.661247   0.180494   5.047395 C.3        1 UNL1     -0.0567
     58 C         4.774616   3.029247   2.389263 C.3        1 UNL1     0.0210
     59 C         0.930046   0.054808   4.810966 C.3        1 UNL1     0.0372
     60 C         2.330335   1.790435   3.395766 C.2        1 UNL1     -0.0208
     61 C         3.17497   0.974374   4.027732 C.2        1 UNL1     0.0882
     62 H         3.349176   -2.189225   1.019974 H        1 UNL1     0.0365
     63 H         5.20373   -2.343121   0.179038 H        1 UNL1     0.0576
     64 H         5.181372   -4.279587   -2.218122 H        1 UNL1     0.0615
     65 H         7.386214   -2.436552   -0.993478 H        1 UNL1     0.0622
     66 H         0.992867   3.245848   4.038488 H        1 UNL1     0.0645
     67 H         -0.382815   3.230533   2.423722 H        1 UNL1     0.0362
     68 H         -1.858612   2.130996   3.619136 H        1 UNL1     0.0741
     69 H         -2.476371   -0.426025   3.292934 H        1 UNL1     0.0359
     70 H         -0.958599   -2.067601   3.326225 H        1 UNL1     0.0600
     71 H         -0.972024   -2.405937   1.183783 H        1 UNL1     0.0348
     72 H         1.443301   -2.392971   1.496962 H        1 UNL1     0.0602
     73 H         2.667802   2.368992   2.571972 H        1 UNL1     0.0628
     74 H         2.89343   0.305618   4.841819 H        1 UNL1     0.1022
     75 H         9.490043   -4.286445   -4.070081 H        1 UNL1     0.0279
     76 H         7.868783   -4.421984   -4.623657 H        1 UNL1     0.0279
     77 H         8.859436   -2.936536   -4.919205 H        1 UNL1     0.0279
     78 H         8.470741   -0.947503   -4.177702 H        1 UNL1     0.1553
     79 H         6.496505   -1.105183   -4.11645 H        1 UNL1     0.1484
     80 H         3.494267   1.078462   -3.305427 H        1 UNL1     0.0317
     81 H         5.145661   1.679326   -3.263147 H        1 UNL1     0.0317
     82 H         5.736217   0.370565   -5.320352 H        1 UNL1     0.0428
     83 H         4.393818   1.463387   -5.576104 H        1 UNL1     0.0428
     84 H         3.420842   -2.62531   -4.913525 H        1 UNL1     0.0428
     85 H         5.103728   -2.229581   -4.933909 H        1 UNL1     0.0428
     86 H         4.027166   -2.47628   -2.696722 H        1 UNL1     0.0317
     87 H         2.919639   -1.213161   -2.980034 H        1 UNL1     0.0317
     88 H         4.119759   0.159253   -7.329107 H        1 UNL1     0.0429
     89 H         4.239418   -1.598357   -7.216302 H        1 UNL1     0.0429
     90 H         1.768542   -1.715844   -6.773596 H        1 UNL1     0.0308
     91 H         0.930348   0.946211   -7.515402 H        1 UNL1     0.0233
     92 H         0.664676   0.101955   -5.968746 H        1 UNL1     0.0233
     93 H         2.065318   1.129922   -6.183427 H        1 UNL1     0.0233
     94 H         1.30374   -1.744348   -8.943387 H        1 UNL1     0.0233
     95 H         1.702867   -0.033626   -9.163519 H        1 UNL1     0.0233
     96 H         2.993645   -1.257263   -9.187975 H        1 UNL1     0.0233
     97 H         10.221102   3.126841   2.875779 H        1 UNL1     0.0280
     98 H         8.637409   3.497622   3.501577 H        1 UNL1     0.0280
     99 H         9.480302   2.015446   4.042332 H        1 UNL1     0.0280
     100 H         11.141241   1.668674   1.378774 H        1 UNL1     0.2922
     101 H         3.058702   -5.138473   0.705372 H        1 UNL1     0.0236
     102 H         1.790493   -4.311177   1.691926 H        1 UNL1     0.0236
     103 H         3.468831   -4.237539   2.131534 H        1 UNL1     0.0236
     104 H         0.10381   -3.840009   0.417974 H        1 UNL1     0.2098
     105 H         -1.41789   -0.904738   -0.426409 H        1 UNL1     0.0234
     106 H         -1.383237   0.246195   0.939332 H        1 UNL1     0.0234
     107 H         0.0   0.0   0.0 H        1 UNL1     0.0234
     108 H         0.650556   -1.503061   4.462208 H        1 UNL1     0.2098
     109 H         1.700804   2.363211   1.199808 H        1 UNL1     0.0234
     110 H         0.627876   0.993991   0.76753 H        1 UNL1     0.0234
     111 H         0.179387   2.615624   0.370028 H        1 UNL1     0.0234
     112 H         -0.912994   0.782451   -0.782948 H        1 UNL1     0.0342
     113 H         -0.612312   0.449133   0.959673 H        1 UNL1     0.0342
     114 H         -1.732418   -0.557753   0.037984 H        1 UNL1     0.0342
     115 H         -1.913112   -0.771025   5.535619 H        1 UNL1     0.0234
     116 H         -0.773626   0.578902   5.542822 H        1 UNL1     0.0234
     117 H         -2.523299   0.804598   5.339465 H        1 UNL1     0.0234
     118 H         4.889918   3.784789   3.186049 H        1 UNL1     0.0309
     119 H         5.299539   3.372052   1.491966 H        1 UNL1     0.0309
     120 H         3.706219   3.074157   2.151319 H        1 UNL1     0.0309
     121 H         1.199306   -0.174401   3.780278 H        1 UNL1     0.0524
     122 H         1.807089   -0.169037   5.440828 H        1 UNL1     0.0524
     123 H         0.099267   -0.568756   5.128879 H        1 UNL1     0.0524
@<TRIPOS>BOND
     1     1     2    1
     2     1    42    1
     3     2     3    2
     4     3     4    1
     5     4     5    2
     6     5     7    1
     7     6    75    1
     8     6    76    1
     9     6    77    1
    10     7     9   am
    11     9    10    1
    12    10    11    2
    13    10    43    1
    14    11    14    1
    15    11    15    1
    16    12    13   ar
    17    12    27   ar
    18    12    43    1
    19    13    14    1
    20    13    30   ar
    21    14    17    2
    22    15    16    1
    23    16    17    1
    24    16    18    1
    25    16    22    1
    26    18    19    1
    27    19    20    1
    28    20    21    1
    29    21    22    1
    30    23    24    1
    31    23    88    1
    32    23    89    1
    33    24    25    1
    34    24    26    1
    35    24    90    1
    36    25    91    1
    37    25    92    1
    38    25    93    1
    39    26    94    1
    40    26    95    1
    41    26    96    1
    42    27    28   ar
    43    28    29   ar
    44    29    30   ar
    45    29    31    1
    46    30    33    1
    47    31    32    1
    48    32    33    1
    49    32    35    1
    50    34    97    1
    51    34    98    1
    52    34    99    1
    53    35    61    1
    54    36    37    1
    55    36    60    1
    56    37    38    1
    57    38    39    1
    58    39    40    1
    59    40    41    1
    60    41    42    1
    61    45   100    1
    62    47   101    1
    63    47   102    1
    64    47   103    1
    65    48   104    1
    66    49   105    1
    67    49   106    1
    68    49   107    1
    69    50   108    1
    70    51    59    1
    71    52   109    1
    72    52   110    1
    73    52   111    1
    74    53    54    1
    75    54    55    2
    76    54    56    1
    77    56   112    1
    78    56   113    1
    79    56   114    1
    80    57   115    1
    81    57   116    1
    82    57   117    1
    83    58   118    1
    84    58   119    1
    85    58   120    1
    86    59   121    1
    87    59   122    1
    88    59   123    1
    89    60    61    2
    90     1    47    1
    91     1    62    1
    92     2    63    1
    93     3    64    1
    94     4    65    1
    95     5     6    1
    96     7     8    2
    97     9    78    1
    98    15    79    1
    99    18    80    1
   100    18    81    1
   101    19    82    1
   102    19    83    1
   103    20    23    1
   104    21    84    1
   105    21    85    1
   106    22    86    1
   107    22    87    1
   108    27    45    1
   109    28    34    1
   110    32    58    1
   111    33    46    2
   112    36    51    1
   113    36    66    1
   114    37    52    1
   115    37    67    1
   116    38    53    1
   117    38    68    1
   118    42    48    1
   119    42    72    1
   120    43    44    2
   121    60    73    1
   122    61    74    1
   123    39    69    1
   124    39    57    1
   125    40    70    1
   126    40    50    1
   127    41    71    1
   128    41    49    1
