@<TRIPOS>MOLECULE
*****
 123 128 0 0 0
SMALL
GASTEIGER

@<TRIPOS>ATOM
     1 C         -0.903686   -4.823749   -2.114903 C.3        1 UNL1     0.0009
     2 C         -2.185184   -6.102493   -2.514419 C.2        1 UNL1     -0.0787
     3 C         -2.957089   -7.2678   -2.137235 C.2        1 UNL1     -0.0649
     4 C         -4.217687   -8.003319   -2.995292 C.2        1 UNL1     -0.0542
     5 C         -5.339681   -8.863129   -2.900756 C.2        1 UNL1     0.0115
     6 C         -6.089621   -9.85232   -1.966725 C.3        1 UNL1     -0.0348
     7 C         -6.432918   -8.845797   -4.076137 C.2        1 UNL1     0.2441
     8 O         -6.492665   -9.707819   -4.94209 O.2        1 UNL1     -0.2702
     9 N         -7.476989   -7.921918   -3.895815 N.am        1 UNL1     -0.2772
     10 C         -7.131352   -6.698092   -4.421272 C.2        1 UNL1     0.1049
     11 C         -6.39652   -5.919285   -3.648159 C.2        1 UNL1     0.0801
     12 C         -6.194427   -5.612556   -6.470935 C.ar        1 UNL1     0.0753
     13 C         -5.273894   -4.945292   -5.601461 C.ar        1 UNL1     0.0305
     14 C         -5.432443   -4.977572   -4.149265 C.2        1 UNL1     0.0924
     15 N         -6.097849   -6.032286   -2.342573 N.pl3        1 UNL1     -0.3170
     16 C         -5.409484   -4.833336   -1.943917 C.3        1 UNL1     0.1275
     17 N         -4.741943   -4.343584   -3.205763 N.2        1 UNL1     -0.2557
     18 C         -6.47272   -3.795571   -1.597113 C.3        1 UNL1     0.0016
     19 C         -7.390096   -4.376179   -0.532732 C.3        1 UNL1     0.0026
     20 N         -6.591965   -4.719375   0.636127 N.3        1 UNL1     -0.3018
     21 C         -5.502591   -5.666221   0.388913 C.3        1 UNL1     0.0026
     22 C         -4.590963   -5.060784   -0.67986 C.3        1 UNL1     0.0016
     23 C         -7.398477   -4.997902   1.807709 C.3        1 UNL1     0.0012
     24 C         -8.860032   -5.253248   1.407196 C.3        1 UNL1     -0.0339
     25 C         -8.98972   -6.500935   0.518086 C.3        1 UNL1     -0.0615
     26 C         -9.72933   -5.358363   2.648184 C.3        1 UNL1     -0.0615
     27 C         -6.107451   -5.477793   -7.854551 C.ar        1 UNL1     0.1347
     28 C         -5.171023   -4.674607   -8.480686 C.ar        1 UNL1     0.0342
     29 C         -4.244763   -4.066223   -7.607145 C.ar        1 UNL1     0.1435
     30 C         -4.297309   -4.221025   -6.221325 C.ar        1 UNL1     0.0774
     31 O         -3.340254   -3.167617   -8.053661 O.3        1 UNL1     -0.4436
     32 C         -2.934191   -2.447859   -6.879806 C.3        1 UNL1     0.3143
     33 C         -3.230152   -3.379344   -5.72181 C.2        1 UNL1     0.2504
     34 C         -5.174013   -4.284138   -9.932453 C.3        1 UNL1     -0.0327
     35 O         -1.51036   -2.299411   -6.942418 O.2        1 UNL1     -0.4528
     36 C         -0.721409   0.942077   -5.131785 C.3        1 UNL1     0.0854
     37 C         -1.066159   1.366298   -3.652357 C.3        1 UNL1     0.0236
     38 C         0.192338   1.82294   -2.769517 C.3        1 UNL1     0.1131
     39 C         1.474111   0.899132   -2.692675 C.3        1 UNL1     0.0200
     40 C         1.316477   -0.750276   -2.500216 C.3        1 UNL1     0.0661
     41 C         0.361151   -1.527769   -1.333825 C.3        1 UNL1     0.0091
     42 C         -0.540715   -3.123667   -1.405583 C.3        1 UNL1     0.0661
     43 C         -7.300032   -6.381303   -5.847296 C.2        1 UNL1     0.2131
     44 O         -8.337787   -6.654813   -6.422618 O.2        1 UNL1     -0.2851
     45 O         -7.013666   -6.19707   -8.630987 O.3        1 UNL1     -0.5056
     46 O         -2.691256   -3.430047   -4.638816 O.2        1 UNL1     -0.2836
     47 C         0.518115   -5.441912   -2.194528 C.3        1 UNL1     -0.0566
     48 O         -0.038865   -3.596774   -0.092787 O.3        1 UNL1     -0.3909
     49 C         -0.581066   -0.51566   -0.721164 C.3        1 UNL1     -0.0577
     50 O         1.165551   -1.388757   -3.75213 O.3        1 UNL1     -0.3910
     51 O         0.650614   0.848271   -5.441921 O.3        1 UNL1     -0.3753
     52 C         -2.231478   0.50971   -3.058017 C.3        1 UNL1     -0.0564
     53 O         -0.187959   2.544005   -1.509451 O.3        1 UNL1     -0.4608
     54 C         0.68243   2.949135   -0.531585 C.2        1 UNL1     0.3042
     55 O         0.635428   2.680515   0.668195 O.2        1 UNL1     -0.2512
     56 C         1.832935   3.763916   -1.050413 C.3        1 UNL1     0.0332
     57 C         2.514441   1.425687   -3.787494 C.3        1 UNL1     -0.0567
     58 C         -3.863287   -1.215731   -6.778963 C.3        1 UNL1     0.0210
     59 C         1.527897   0.97498   -4.323804 C.3        1 UNL1     0.0372
     60 C         -1.351706   -0.327783   -5.584929 C.2        1 UNL1     -0.0208
     61 C         -0.834799   -1.358197   -6.255599 C.2        1 UNL1     0.0882
     62 H         -1.095984   -4.35487   -3.087469 H        1 UNL1     0.0365
     63 H         -2.416228   -5.842694   -3.549597 H        1 UNL1     0.0576
     64 H         -2.891904   -7.697836   -1.135274 H        1 UNL1     0.0615
     65 H         -4.144172   -7.564191   -3.993913 H        1 UNL1     0.0622
     66 H         -1.158601   1.734705   -5.755204 H        1 UNL1     0.0645
     67 H         -1.611304   2.319327   -3.766867 H        1 UNL1     0.0362
     68 H         0.505778   2.709909   -3.340975 H        1 UNL1     0.0741
     69 H         2.057187   1.184198   -1.82713 H        1 UNL1     0.0359
     70 H         2.345788   -1.004407   -2.182416 H        1 UNL1     0.0600
     71 H         1.106293   -1.649062   -0.523265 H        1 UNL1     0.0348
     72 H         0.210926   -3.163792   -2.207294 H        1 UNL1     0.0602
     73 H         -2.397121   -0.282357   -5.405227 H        1 UNL1     0.0628
     74 H         0.231201   -1.508056   -6.430025 H        1 UNL1     0.1022
     75 H         -5.565804   -9.93732   -0.984164 H        1 UNL1     0.0279
     76 H         -7.097798   -9.570764   -1.671136 H        1 UNL1     0.0279
     77 H         -6.047259   -10.891135   -2.32557 H        1 UNL1     0.0279
     78 H         -7.649553   -7.790598   -2.901303 H        1 UNL1     0.1553
     79 H         -6.618354   -6.599847   -1.699235 H        1 UNL1     0.1484
     80 H         -5.978988   -2.88171   -1.245187 H        1 UNL1     0.0317
     81 H         -7.051866   -3.517247   -2.484118 H        1 UNL1     0.0317
     82 H         -7.943205   -5.251007   -0.905101 H        1 UNL1     0.0428
     83 H         -8.141612   -3.620635   -0.301588 H        1 UNL1     0.0428
     84 H         -4.870192   -5.845479   1.263985 H        1 UNL1     0.0428
     85 H         -5.880057   -6.663474   0.123731 H        1 UNL1     0.0428
     86 H         -3.740013   -5.713815   -0.738366 H        1 UNL1     0.0317
     87 H         -4.163059   -4.118191   -0.317215 H        1 UNL1     0.0317
     88 H         -7.003946   -5.903673   2.286477 H        1 UNL1     0.0429
     89 H         -7.32552   -4.187132   2.543986 H        1 UNL1     0.0429
     90 H         -9.236451   -4.386986   0.85032 H        1 UNL1     0.0308
     91 H         -8.636182   -7.397237   1.036502 H        1 UNL1     0.0233
     92 H         -10.027483   -6.650176   0.210865 H        1 UNL1     0.0233
     93 H         -8.406064   -6.41726   -0.406673 H        1 UNL1     0.0233
     94 H         -9.207242   -5.922819   3.428345 H        1 UNL1     0.0233
     95 H         -9.943172   -4.360097   3.040228 H        1 UNL1     0.0233
     96 H         -10.675246   -5.8625   2.431259 H        1 UNL1     0.0233
     97 H         -6.057127   -3.710884   -10.198385 H        1 UNL1     0.0280
     98 H         -4.3154   -3.651386   -10.192574 H        1 UNL1     0.0280
     99 H         -5.149235   -5.191025   -10.558582 H        1 UNL1     0.0280
     100 H         -7.08568   -7.107945   -8.405724 H        1 UNL1     0.2922
     101 H         1.016192   -5.102679   -3.102546 H        1 UNL1     0.0236
     102 H         0.518697   -6.528047   -2.109124 H        1 UNL1     0.0236
     103 H         1.167081   -5.095093   -1.373095 H        1 UNL1     0.0236
     104 H         0.563058   -4.348131   -0.260481 H        1 UNL1     0.2098
     105 H         -0.969222   0.218668   -1.422526 H        1 UNL1     0.0234
     106 H         -1.393896   -0.945932   -0.13627 H        1 UNL1     0.0234
     107 H         0.0   0.0   0.0 H        1 UNL1     0.0234
     108 H         0.208747   -1.429479   -3.943534 H        1 UNL1     0.2098
     109 H         -2.871514   0.078316   -3.840298 H        1 UNL1     0.0234
     110 H         -1.883714   -0.285171   -2.38946 H        1 UNL1     0.0234
     111 H         -2.897958   1.114336   -2.428591 H        1 UNL1     0.0234
     112 H         1.575963   4.827308   -1.027832 H        1 UNL1     0.0342
     113 H         2.75212   3.57229   -0.498849 H        1 UNL1     0.0342
     114 H         2.008277   3.481985   -2.097759 H        1 UNL1     0.0342
     115 H         2.509216   0.79947   -4.690276 H        1 UNL1     0.0234
     116 H         2.343635   2.457078   -4.102307 H        1 UNL1     0.0234
     117 H         3.568181   1.335975   -3.472019 H        1 UNL1     0.0234
     118 H         -3.516172   -0.381672   -7.413678 H        1 UNL1     0.0309
     119 H         -4.905736   -1.442508   -7.024064 H        1 UNL1     0.0309
     120 H         -3.875977   -0.779966   -5.773949 H        1 UNL1     0.0309
     121 H         1.598884   2.034369   -4.078832 H        1 UNL1     0.0524
     122 H         1.145796   0.452664   -3.430931 H        1 UNL1     0.0524
     123 H         2.509723   0.58054   -4.56983 H        1 UNL1     0.0524
@<TRIPOS>BOND
     1     1     2    1
     2     1    42    1
     3     2     3    2
     4     3     4    1
     5     4     5    2
     6     5     7    1
     7     6    75    1
     8     6    76    1
     9     6    77    1
    10     7     9   am
    11     9    10    1
    12    10    11    2
    13    10    43    1
    14    11    14    1
    15    11    15    1
    16    12    13   ar
    17    12    27   ar
    18    12    43    1
    19    13    14    1
    20    13    30   ar
    21    14    17    2
    22    15    16    1
    23    16    17    1
    24    16    18    1
    25    16    22    1
    26    18    19    1
    27    19    20    1
    28    20    21    1
    29    21    22    1
    30    23    24    1
    31    23    88    1
    32    23    89    1
    33    24    25    1
    34    24    26    1
    35    24    90    1
    36    25    91    1
    37    25    92    1
    38    25    93    1
    39    26    94    1
    40    26    95    1
    41    26    96    1
    42    27    28   ar
    43    28    29   ar
    44    29    30   ar
    45    29    31    1
    46    30    33    1
    47    31    32    1
    48    32    33    1
    49    32    35    1
    50    34    97    1
    51    34    98    1
    52    34    99    1
    53    35    61    1
    54    36    37    1
    55    36    60    1
    56    37    38    1
    57    38    39    1
    58    39    40    1
    59    40    41    1
    60    41    42    1
    61    45   100    1
    62    47   101    1
    63    47   102    1
    64    47   103    1
    65    48   104    1
    66    49   105    1
    67    49   106    1
    68    49   107    1
    69    50   108    1
    70    51    59    1
    71    52   109    1
    72    52   110    1
    73    52   111    1
    74    53    54    1
    75    54    55    2
    76    54    56    1
    77    56   112    1
    78    56   113    1
    79    56   114    1
    80    57   115    1
    81    57   116    1
    82    57   117    1
    83    58   118    1
    84    58   119    1
    85    58   120    1
    86    59   121    1
    87    59   122    1
    88    59   123    1
    89    60    61    2
    90     1    47    1
    91     1    62    1
    92     2    63    1
    93     3    64    1
    94     4    65    1
    95     5     6    1
    96     7     8    2
    97     9    78    1
    98    15    79    1
    99    18    80    1
   100    18    81    1
   101    19    82    1
   102    19    83    1
   103    20    23    1
   104    21    84    1
   105    21    85    1
   106    22    86    1
   107    22    87    1
   108    27    45    1
   109    28    34    1
   110    32    58    1
   111    33    46    2
   112    36    51    1
   113    36    66    1
   114    37    52    1
   115    37    67    1
   116    38    53    1
   117    38    68    1
   118    42    48    1
   119    42    72    1
   120    43    44    2
   121    60    73    1
   122    61    74    1
   123    39    69    1
   124    39    57    1
   125    40    70    1
   126    40    50    1
   127    41    71    1
   128    41    49    1
