@<TRIPOS>MOLECULE
*****
 123 128 0 0 0
SMALL
GASTEIGER

@<TRIPOS>ATOM
     1 C         5.060269   2.033123   0.518341 C.3        1 UNL1     0.0009
     2 C         6.415715   2.995079   -0.302904 C.2        1 UNL1     -0.0787
     3 C         7.690876   3.03473   -0.98733 C.2        1 UNL1     -0.0649
     4 C         8.45659   4.37425   -1.684268 C.2        1 UNL1     -0.0542
     5 C         9.435757   4.796726   -2.616912 C.2        1 UNL1     0.0115
     6 C         10.596129   4.310018   -3.527942 C.3        1 UNL1     -0.0348
     7 C         9.404664   6.313157   -3.142705 C.2        1 UNL1     0.2441
     8 O         10.167084   7.176278   -2.730075 O.2        1 UNL1     -0.2702
     9 N         8.622434   6.522159   -4.291872 N.am        1 UNL1     -0.2772
     10 C         7.318282   6.788423   -3.943141 C.2        1 UNL1     0.1049
     11 C         6.556191   5.738697   -3.695117 C.2        1 UNL1     0.0801
     12 C         5.919493   8.209182   -2.432457 C.ar        1 UNL1     0.0753
     13 C         5.258577   7.002247   -2.038622 C.ar        1 UNL1     0.0305
     14 C         5.467886   5.746321   -2.755484 C.2        1 UNL1     0.0924
     15 N         6.780538   4.434063   -3.927769 N.pl3        1 UNL1     -0.3170
     16 C         5.56679   3.720003   -3.632492 C.3        1 UNL1     0.1275
     17 N         4.872449   4.567936   -2.594888 N.2        1 UNL1     -0.2557
     18 C         4.692462   3.778606   -4.881419 C.3        1 UNL1     0.0016
     19 C         5.48126   3.217925   -6.054033 C.3        1 UNL1     0.0026
     20 N         5.864962   1.846985   -5.746913 N.3        1 UNL1     -0.3018
     21 C         6.657683   1.681717   -4.526812 C.3        1 UNL1     0.0026
     22 C         5.844474   2.247308   -3.361182 C.3        1 UNL1     0.0016
     23 C         6.355337   1.12582   -6.904538 C.3        1 UNL1     0.0012
     24 C         5.207245   0.834382   -7.883672 C.3        1 UNL1     -0.0339
     25 C         5.131426   1.895909   -8.993388 C.3        1 UNL1     -0.0615
     26 C         5.354271   -0.564293   -8.457145 C.3        1 UNL1     -0.0615
     27 C         5.62409   9.425961   -1.82229 C.ar        1 UNL1     0.1347
     28 C         4.661783   9.566798   -0.838327 C.ar        1 UNL1     0.0342
     29 C         4.058893   8.357234   -0.432567 C.ar        1 UNL1     0.1435
     30 C         4.370689   7.125534   -1.009559 C.ar        1 UNL1     0.0774
     31 O         3.025544   8.341992   0.437469 O.3        1 UNL1     -0.4436
     32 C         2.401007   7.065116   0.236437 C.3        1 UNL1     0.3143
     33 C         3.480947   6.185485   -0.360381 C.2        1 UNL1     0.2504
     34 C         4.115706   10.867591   -0.318869 C.3        1 UNL1     -0.0327
     35 O         2.096298   6.53144   1.530885 O.2        1 UNL1     -0.4528
     36 C         -0.990393   4.371768   1.06586 C.3        1 UNL1     0.0854
     37 C         -1.20942   3.140678   0.104628 C.3        1 UNL1     0.0236
     38 C         -1.696588   1.795624   0.829362 C.3        1 UNL1     0.1131
     39 C         -0.911214   1.255224   2.091671 C.3        1 UNL1     0.0200
     40 C         0.756718   1.240077   2.106199 C.3        1 UNL1     0.0661
     41 C         1.755383   0.613426   0.886531 C.3        1 UNL1     0.0091
     42 C         3.420194   1.140071   0.323991 C.3        1 UNL1     0.0661
     43 C         6.865443   8.137783   -3.573658 C.2        1 UNL1     0.2131
     44 O         7.182225   9.10189   -4.246625 O.2        1 UNL1     -0.2851
     45 O         6.345174   10.545324   -2.232781 O.3        1 UNL1     -0.5056
     46 O         3.593624   4.981758   -0.295569 O.2        1 UNL1     -0.2836
     47 C         5.511448   1.560249   1.926464 C.3        1 UNL1     -0.0566
     48 O         3.979628   -0.233301   0.323721 O.3        1 UNL1     -0.3909
     49 C         0.922964   0.381908   -0.354828 C.3        1 UNL1     -0.0577
     50 O         1.265233   2.479026   2.558019 O.3        1 UNL1     -0.3910
     51 O         -1.077584   4.098765   2.446185 O.3        1 UNL1     -0.3753
     52 C         -0.17357   3.125472   -1.066582 C.3        1 UNL1     -0.0564
     53 O         -2.229438   0.761632   -0.11893 O.3        1 UNL1     -0.4608
     54 C         -2.34274   -0.577914   0.14698 C.2        1 UNL1     0.3042
     55 O         -1.701277   -1.49699   -0.360625 O.2        1 UNL1     -0.2512
     56 C         -3.337952   -0.894624   1.226777 C.3        1 UNL1     0.0332
     57 C         -1.66301   1.796497   3.395512 C.3        1 UNL1     -0.0567
     58 C         1.293179   7.281617   -0.820622 C.3        1 UNL1     0.0210
     59 C         -1.501455   5.199343   3.249258 C.3        1 UNL1     0.0372
     60 C         0.281241   5.11583   0.854954 C.2        1 UNL1     -0.0208
     61 C         1.170465   5.575117   1.736475 C.2        1 UNL1     0.0882
     62 H         4.509788   2.970318   0.664442 H        1 UNL1     0.0365
     63 H         6.069031   4.01727   -0.137356 H        1 UNL1     0.0576
     64 H         8.219713   2.120474   -1.265854 H        1 UNL1     0.0615
     65 H         7.904419   5.228233   -1.282642 H        1 UNL1     0.0622
     66 H         -1.796201   5.072305   0.805155 H        1 UNL1     0.0645
     67 H         -2.106004   3.412543   -0.479142 H        1 UNL1     0.0362
     68 H         -2.669532   2.136491   1.214995 H        1 UNL1     0.0741
     69 H         -1.159072   0.212001   2.235406 H        1 UNL1     0.0359
     70 H         0.933763   0.544578   2.948811 H        1 UNL1     0.0600
     71 H         1.885804   -0.422398   1.256686 H        1 UNL1     0.0348
     72 H         3.291429   1.565289   1.329935 H        1 UNL1     0.0602
     73 H         0.367159   5.376912   -0.170572 H        1 UNL1     0.0628
     74 H         1.186146   5.306874   2.793375 H        1 UNL1     0.1022
     75 H         10.729817   3.205172   -3.435879 H        1 UNL1     0.0279
     76 H         10.45962   4.441022   -4.59905 H        1 UNL1     0.0279
     77 H         11.579053   4.675693   -3.196519 H        1 UNL1     0.0279
     78 H         8.620951   5.679316   -4.862566 H        1 UNL1     0.1553
     79 H         7.467768   4.093851   -4.574996 H        1 UNL1     0.1484
     80 H         3.775921   3.203215   -4.703531 H        1 UNL1     0.0317
     81 H         4.380796   4.80708   -5.092974 H        1 UNL1     0.0317
     82 H         6.363269   3.833944   -6.283147 H        1 UNL1     0.0428
     83 H         4.839951   3.270805   -6.934361 H        1 UNL1     0.0428
     84 H         6.864483   0.636593   -4.276292 H        1 UNL1     0.0428
     85 H         7.653886   2.135411   -4.621993 H        1 UNL1     0.0428
     86 H         6.39302   1.990597   -2.473948 H        1 UNL1     0.0317
     87 H         4.907711   1.687399   -3.251302 H        1 UNL1     0.0317
     88 H         7.095702   1.757807   -7.412227 H        1 UNL1     0.0429
     89 H         6.869122   0.201558   -6.610362 H        1 UNL1     0.0429
     90 H         4.25814   0.83476   -7.334662 H        1 UNL1     0.0308
     91 H         6.071405   1.95729   -9.54996 H        1 UNL1     0.0233
     92 H         4.317768   1.67197   -9.687233 H        1 UNL1     0.0233
     93 H         4.929348   2.899005   -8.598676 H        1 UNL1     0.0233
     94 H         4.656545   -0.706509   -9.289484 H        1 UNL1     0.0233
     95 H         6.368859   -0.706518   -8.839697 H        1 UNL1     0.0233
     96 H         5.151462   -1.328647   -7.701764 H        1 UNL1     0.0233
     97 H         3.340316   10.715517   0.42603 H        1 UNL1     0.0280
     98 H         4.888252   11.474524   0.171093 H        1 UNL1     0.0280
     99 H         3.685313   11.446324   -1.152491 H        1 UNL1     0.0280
     100 H         5.815582   11.272403   -2.509387 H        1 UNL1     0.2922
     101 H         4.693375   1.033097   2.416895 H        1 UNL1     0.0236
     102 H         5.906381   2.366772   2.543337 H        1 UNL1     0.0236
     103 H         6.328409   0.821382   1.873143 H        1 UNL1     0.0236
     104 H         4.421275   -0.372053   1.184341 H        1 UNL1     0.2098
     105 H         0.712488   1.280991   -0.928553 H        1 UNL1     0.0234
     106 H         1.292382   -0.406652   -1.010291 H        1 UNL1     0.0234
     107 H         0.0   -0.0   0.0 H        1 UNL1     0.0234
     108 H         1.002342   3.155999   1.905053 H        1 UNL1     0.2098
     109 H         0.862791   3.073601   -0.704673 H        1 UNL1     0.0234
     110 H         -0.350714   2.319999   -1.787398 H        1 UNL1     0.0234
     111 H         -0.232045   4.040783   -1.670513 H        1 UNL1     0.0234
     112 H         -3.375719   -1.975548   1.39268 H        1 UNL1     0.0342
     113 H         -3.120118   -0.364594   2.152769 H        1 UNL1     0.0342
     114 H         -4.330584   -0.571635   0.88396 H        1 UNL1     0.0342
     115 H         -2.701814   1.442015   3.444684 H        1 UNL1     0.0234
     116 H         -1.177538   1.521772   4.33407 H        1 UNL1     0.0234
     117 H         -1.810807   2.890159   3.395917 H        1 UNL1     0.0234
     118 H         0.363087   7.672704   -0.372307 H        1 UNL1     0.0309
     119 H         1.60196   7.941433   -1.637629 H        1 UNL1     0.0309
     120 H         0.97261   6.345773   -1.291299 H        1 UNL1     0.0309
     121 H         -0.760404   5.990899   3.141369 H        1 UNL1     0.0524
     122 H         -2.472436   5.606745   2.921757 H        1 UNL1     0.0524
     123 H         -1.578687   4.897497   4.28994 H        1 UNL1     0.0524
@<TRIPOS>BOND
     1     1     2    1
     2     1    42    1
     3     2     3    2
     4     3     4    1
     5     4     5    2
     6     5     7    1
     7     6    75    1
     8     6    76    1
     9     6    77    1
    10     7     9   am
    11     9    10    1
    12    10    11    2
    13    10    43    1
    14    11    14    1
    15    11    15    1
    16    12    13   ar
    17    12    27   ar
    18    12    43    1
    19    13    14    1
    20    13    30   ar
    21    14    17    2
    22    15    16    1
    23    16    17    1
    24    16    18    1
    25    16    22    1
    26    18    19    1
    27    19    20    1
    28    20    21    1
    29    21    22    1
    30    23    24    1
    31    23    88    1
    32    23    89    1
    33    24    25    1
    34    24    26    1
    35    24    90    1
    36    25    91    1
    37    25    92    1
    38    25    93    1
    39    26    94    1
    40    26    95    1
    41    26    96    1
    42    27    28   ar
    43    28    29   ar
    44    29    30   ar
    45    29    31    1
    46    30    33    1
    47    31    32    1
    48    32    33    1
    49    32    35    1
    50    34    97    1
    51    34    98    1
    52    34    99    1
    53    35    61    1
    54    36    37    1
    55    36    60    1
    56    37    38    1
    57    38    39    1
    58    39    40    1
    59    40    41    1
    60    41    42    1
    61    45   100    1
    62    47   101    1
    63    47   102    1
    64    47   103    1
    65    48   104    1
    66    49   105    1
    67    49   106    1
    68    49   107    1
    69    50   108    1
    70    51    59    1
    71    52   109    1
    72    52   110    1
    73    52   111    1
    74    53    54    1
    75    54    55    2
    76    54    56    1
    77    56   112    1
    78    56   113    1
    79    56   114    1
    80    57   115    1
    81    57   116    1
    82    57   117    1
    83    58   118    1
    84    58   119    1
    85    58   120    1
    86    59   121    1
    87    59   122    1
    88    59   123    1
    89    60    61    2
    90     1    47    1
    91     1    62    1
    92     2    63    1
    93     3    64    1
    94     4    65    1
    95     5     6    1
    96     7     8    2
    97     9    78    1
    98    15    79    1
    99    18    80    1
   100    18    81    1
   101    19    82    1
   102    19    83    1
   103    20    23    1
   104    21    84    1
   105    21    85    1
   106    22    86    1
   107    22    87    1
   108    27    45    1
   109    28    34    1
   110    32    58    1
   111    33    46    2
   112    36    51    1
   113    36    66    1
   114    37    52    1
   115    37    67    1
   116    38    53    1
   117    38    68    1
   118    42    48    1
   119    42    72    1
   120    43    44    2
   121    60    73    1
   122    61    74    1
   123    39    69    1
   124    39    57    1
   125    40    70    1
   126    40    50    1
   127    41    71    1
   128    41    49    1
