@<TRIPOS>MOLECULE
*****
 123 128 0 0 0
SMALL
GASTEIGER

@<TRIPOS>ATOM
     1 C         1.04679   3.298235   4.247073 C.3        1 UNL1     0.0009
     2 C         1.377105   5.038986   4.792706 C.2        1 UNL1     -0.0787
     3 C         2.303397   6.069115   5.213258 C.2        1 UNL1     -0.0649
     4 C         1.979042   7.705623   5.501344 C.2        1 UNL1     -0.0542
     5 C         2.54522   8.999621   5.611298 C.2        1 UNL1     0.0115
     6 C         3.884423   9.781831   5.700764 C.3        1 UNL1     -0.0348
     7 C         1.584565   10.28042   5.494314 C.2        1 UNL1     0.2441
     8 O         1.210692   10.92276   6.465984 O.2        1 UNL1     -0.2702
     9 N         1.413366   10.770902   4.188071 N.am        1 UNL1     -0.2772
     10 C         0.364351   10.131262   3.568594 C.2        1 UNL1     0.1049
     11 C         0.63737   8.960023   3.022809 C.2        1 UNL1     0.0801
     12 C         -2.024548   9.465291   3.895672 C.ar        1 UNL1     0.0753
     13 C         -1.630924   8.149201   3.493709 C.ar        1 UNL1     0.0305
     14 C         -0.313744   7.886799   2.91818 C.2        1 UNL1     0.0924
     15 N         1.822921   8.372965   2.785409 N.pl3        1 UNL1     -0.3170
     16 C         1.577215   7.181342   2.017349 C.3        1 UNL1     0.1275
     17 N         0.179772   6.763431   2.404942 N.2        1 UNL1     -0.2557
     18 C         1.503895   7.595723   0.550851 C.3        1 UNL1     0.0016
     19 C         2.78787   8.323878   0.186452 C.3        1 UNL1     0.0026
     20 N         3.914693   7.432121   0.42324 N.3        1 UNL1     -0.3018
     21 C         4.033129   6.930348   1.793848 C.3        1 UNL1     0.0026
     22 C         2.734496   6.198555   2.137253 C.3        1 UNL1     0.0016
     23 C         5.147959   7.912667   -0.167331 C.3        1 UNL1     0.0012
     24 C         5.084953   7.815569   -1.699766 C.3        1 UNL1     -0.0339
     25 C         4.206295   8.926488   -2.297994 C.3        1 UNL1     -0.0615
     26 C         6.487892   7.838442   -2.28116 C.3        1 UNL1     -0.0615
     27 C         -3.321262   9.7297   4.330114 C.ar        1 UNL1     0.1347
     28 C         -4.318412   8.77141   4.367813 C.ar        1 UNL1     0.0342
     29 C         -3.895012   7.472644   4.014113 C.ar        1 UNL1     0.1435
     30 C         -2.590134   7.185582   3.611484 C.ar        1 UNL1     0.0774
     31 O         -4.773202   6.452992   3.895383 O.3        1 UNL1     -0.4436
     32 C         -4.090338   5.477798   3.093156 C.3        1 UNL1     0.3143
     33 C         -2.616096   5.77747   3.274865 C.2        1 UNL1     0.2504
     34 C         -5.783865   9.031701   4.579467 C.3        1 UNL1     -0.0327
     35 O         -4.331369   4.195202   3.684851 O.2        1 UNL1     -0.4528
     36 C         -4.255934   1.699491   0.825861 C.3        1 UNL1     0.0854
     37 C         -3.105662   1.409652   -0.213559 C.3        1 UNL1     0.0236
     38 C         -2.632943   -0.120893   -0.289158 C.3        1 UNL1     0.1131
     39 C         -2.253184   -0.891845   1.03888 C.3        1 UNL1     0.0200
     40 C         -1.32289   -0.151602   2.208936 C.3        1 UNL1     0.0661
     41 C         0.143898   0.659089   1.946405 C.3        1 UNL1     0.0091
     42 C         0.877201   2.102019   2.8099 C.3        1 UNL1     0.0661
     43 C         -1.031144   10.558043   3.749718 C.2        1 UNL1     0.2131
     44 O         -1.332015   11.735577   3.674703 O.2        1 UNL1     -0.2851
     45 O         -3.609931   11.027555   4.746864 O.3        1 UNL1     -0.5056
     46 O         -1.676327   5.019535   3.184192 O.2        1 UNL1     -0.2836
     47 C         1.137694   2.327902   5.455449 C.3        1 UNL1     -0.0566
     48 O         2.215216   1.479359   2.95525 O.3        1 UNL1     -0.3909
     49 C         0.30819   0.902501   0.462743 C.3        1 UNL1     -0.0577
     50 O         -2.133031   0.590993   3.097726 O.3        1 UNL1     -0.3910
     51 O         -4.602824   0.629125   1.675221 O.3        1 UNL1     -0.3753
     52 C         -2.093567   2.597823   -0.307689 C.3        1 UNL1     -0.0564
     53 O         -1.808805   -0.435637   -1.503266 O.3        1 UNL1     -0.4608
     54 C         -0.737477   -1.289458   -1.53756 C.2        1 UNL1     0.3042
     55 O         0.435173   -1.027426   -1.272854 O.2        1 UNL1     -0.2512
     56 C         -1.105599   -2.702402   -1.890814 C.3        1 UNL1     0.0332
     57 C         -3.549941   -1.696969   1.516762 C.3        1 UNL1     -0.0567
     58 C         -4.481133   5.767781   1.62526 C.3        1 UNL1     0.0210
     59 C         -5.862086   0.021709   1.390319 C.3        1 UNL1     0.0372
     60 C         -4.031345   2.88428   1.698212 C.2        1 UNL1     -0.0208
     61 C         -4.203533   3.035452   3.012077 C.2        1 UNL1     0.0882
     62 H         -0.012935   3.555851   4.131624 H        1 UNL1     0.0365
     63 H         0.35961   5.431568   4.847953 H        1 UNL1     0.0576
     64 H         3.382205   5.898454   5.225725 H        1 UNL1     0.0615
     65 H         0.887565   7.750794   5.547388 H        1 UNL1     0.0622
     66 H         -5.131797   1.942103   0.207759 H        1 UNL1     0.0645
     67 H         -3.593276   1.537516   -1.195619 H        1 UNL1     0.0362
     68 H         -3.567708   -0.58506   -0.638853 H        1 UNL1     0.0741
     69 H         -1.662084   -1.760252   0.780271 H        1 UNL1     0.0359
     70 H         -1.011226   -1.038079   2.793816 H        1 UNL1     0.0600
     71 H         0.856583   -0.172929   2.110064 H        1 UNL1     0.0348
     72 H         0.121082   1.691041   3.494514 H        1 UNL1     0.0602
     73 H         -3.805506   3.726351   1.092273 H        1 UNL1     0.0628
     74 H         -4.379144   2.215571   3.709353 H        1 UNL1     0.1022
     75 H         4.564054   9.310953   6.45137 H        1 UNL1     0.0279
     76 H         4.499396   9.795039   4.803711 H        1 UNL1     0.0279
     77 H         3.760701   10.789982   6.122694 H        1 UNL1     0.0279
     78 H         2.251308   10.585808   3.640649 H        1 UNL1     0.1553
     79 H         2.694183   8.869828   2.754365 H        1 UNL1     0.1484
     80 H         1.36186   6.700743   -0.06689 H        1 UNL1     0.0317
     81 H         0.638495   8.242189   0.369703 H        1 UNL1     0.0317
     82 H         2.899025   9.260878   0.751774 H        1 UNL1     0.0428
     83 H         2.713662   8.611968   -0.862618 H        1 UNL1     0.0428
     84 H         4.838685   6.201358   1.925997 H        1 UNL1     0.0428
     85 H         4.280259   7.732521   2.502905 H        1 UNL1     0.0428
     86 H         2.907345   5.733755   3.090181 H        1 UNL1     0.0317
     87 H         2.594445   5.346454   1.460935 H        1 UNL1     0.0317
     88 H         5.27177   8.967354   0.111238 H        1 UNL1     0.0429
     89 H         6.016986   7.371367   0.228347 H        1 UNL1     0.0429
     90 H         4.659981   6.844731   -1.980988 H        1 UNL1     0.0308
     91 H         3.374085   8.509205   -2.872801 H        1 UNL1     0.0233
     92 H         3.810242   9.571942   -1.510504 H        1 UNL1     0.0233
     93 H         4.765612   9.581014   -2.977402 H        1 UNL1     0.0233
     94 H         6.45745   8.156887   -3.328777 H        1 UNL1     0.0233
     95 H         7.109044   8.550296   -1.730346 H        1 UNL1     0.0233
     96 H         6.955719   6.851102   -2.233558 H        1 UNL1     0.0233
     97 H         -6.385528   8.67204   3.750084 H        1 UNL1     0.0280
     98 H         -6.169568   8.523737   5.473034 H        1 UNL1     0.0280
     99 H         -5.954597   10.115511   4.685776 H        1 UNL1     0.0280
     100 H         -2.992055   11.389183   5.357664 H        1 UNL1     0.2922
     101 H         0.135856   2.029371   5.763436 H        1 UNL1     0.0236
     102 H         1.717908   2.729943   6.285328 H        1 UNL1     0.0236
     103 H         1.64229   1.383571   5.191226 H        1 UNL1     0.0236
     104 H         2.263024   0.73284   2.326447 H        1 UNL1     0.2098
     105 H         -0.308708   1.706107   0.068453 H        1 UNL1     0.0234
     106 H         1.339984   1.021392   0.1323 H        1 UNL1     0.0234
     107 H         0.0   0.0   0.0 H        1 UNL1     0.0234
     108 H         -1.541705   1.176581   3.608791 H        1 UNL1     0.2098
     109 H         -2.575194   3.529497   -0.635914 H        1 UNL1     0.0234
     110 H         -1.550417   2.77559   0.626725 H        1 UNL1     0.0234
     111 H         -1.301815   2.39785   -1.041913 H        1 UNL1     0.0234
     112 H         -0.211834   -3.333605   -1.880133 H        1 UNL1     0.0342
     113 H         -1.874324   -3.102418   -1.231352 H        1 UNL1     0.0342
     114 H         -1.508681   -2.706627   -2.912906 H        1 UNL1     0.0342
     115 H         -3.285706   -2.65124   1.99293 H        1 UNL1     0.0234
     116 H         -4.182477   -1.145528   2.215232 H        1 UNL1     0.0234
     117 H         -4.18469   -2.043378   0.683074 H        1 UNL1     0.0234
     118 H         -5.132477   4.98081   1.206413 H        1 UNL1     0.0309
     119 H         -4.965034   6.740781   1.493683 H        1 UNL1     0.0309
     120 H         -3.617038   5.765327   0.95188 H        1 UNL1     0.0309
     121 H         -6.227623   -0.427796   2.313186 H        1 UNL1     0.0524
     122 H         -6.614887   0.755648   1.057661 H        1 UNL1     0.0524
     123 H         -5.747611   -0.7385   0.622808 H        1 UNL1     0.0524
@<TRIPOS>BOND
     1     1     2    1
     2     1    42    1
     3     2     3    2
     4     3     4    1
     5     4     5    2
     6     5     7    1
     7     6    75    1
     8     6    76    1
     9     6    77    1
    10     7     9   am
    11     9    10    1
    12    10    11    2
    13    10    43    1
    14    11    14    1
    15    11    15    1
    16    12    13   ar
    17    12    27   ar
    18    12    43    1
    19    13    14    1
    20    13    30   ar
    21    14    17    2
    22    15    16    1
    23    16    17    1
    24    16    18    1
    25    16    22    1
    26    18    19    1
    27    19    20    1
    28    20    21    1
    29    21    22    1
    30    23    24    1
    31    23    88    1
    32    23    89    1
    33    24    25    1
    34    24    26    1
    35    24    90    1
    36    25    91    1
    37    25    92    1
    38    25    93    1
    39    26    94    1
    40    26    95    1
    41    26    96    1
    42    27    28   ar
    43    28    29   ar
    44    29    30   ar
    45    29    31    1
    46    30    33    1
    47    31    32    1
    48    32    33    1
    49    32    35    1
    50    34    97    1
    51    34    98    1
    52    34    99    1
    53    35    61    1
    54    36    37    1
    55    36    60    1
    56    37    38    1
    57    38    39    1
    58    39    40    1
    59    40    41    1
    60    41    42    1
    61    45   100    1
    62    47   101    1
    63    47   102    1
    64    47   103    1
    65    48   104    1
    66    49   105    1
    67    49   106    1
    68    49   107    1
    69    50   108    1
    70    51    59    1
    71    52   109    1
    72    52   110    1
    73    52   111    1
    74    53    54    1
    75    54    55    2
    76    54    56    1
    77    56   112    1
    78    56   113    1
    79    56   114    1
    80    57   115    1
    81    57   116    1
    82    57   117    1
    83    58   118    1
    84    58   119    1
    85    58   120    1
    86    59   121    1
    87    59   122    1
    88    59   123    1
    89    60    61    2
    90     1    47    1
    91     1    62    1
    92     2    63    1
    93     3    64    1
    94     4    65    1
    95     5     6    1
    96     7     8    2
    97     9    78    1
    98    15    79    1
    99    18    80    1
   100    18    81    1
   101    19    82    1
   102    19    83    1
   103    20    23    1
   104    21    84    1
   105    21    85    1
   106    22    86    1
   107    22    87    1
   108    27    45    1
   109    28    34    1
   110    32    58    1
   111    33    46    2
   112    36    51    1
   113    36    66    1
   114    37    52    1
   115    37    67    1
   116    38    53    1
   117    38    68    1
   118    42    48    1
   119    42    72    1
   120    43    44    2
   121    60    73    1
   122    61    74    1
   123    39    69    1
   124    39    57    1
   125    40    70    1
   126    40    50    1
   127    41    71    1
   128    41    49    1
