@<TRIPOS>MOLECULE
*****
 123 128 0 0 0
SMALL
GASTEIGER

@<TRIPOS>ATOM
     1 C         5.166532   1.750052   0.493817 C.3        1 UNL1     0.0009
     2 C         6.603034   2.55752   -0.355589 C.2        1 UNL1     -0.0787
     3 C         7.885106   2.460471   -1.021112 C.2        1 UNL1     -0.0649
     4 C         8.762149   3.696619   -1.775494 C.2        1 UNL1     -0.0542
     5 C         9.782248   3.990503   -2.713635 C.2        1 UNL1     0.0115
     6 C         10.910927   3.366289   -3.579523 C.3        1 UNL1     -0.0348
     7 C         9.877034   5.474299   -3.318908 C.2        1 UNL1     0.2441
     8 O         10.700453   6.296019   -2.940381 O.2        1 UNL1     -0.2702
     9 N         9.126976   5.681874   -4.489582 N.am        1 UNL1     -0.2772
     10 C         7.844012   6.067705   -4.175796 C.2        1 UNL1     0.1049
     11 C         6.998612   5.095662   -3.884844 C.2        1 UNL1     0.0801
     12 C         6.544564   7.672603   -2.764035 C.ar        1 UNL1     0.0753
     13 C         5.785929   6.543971   -2.317635 C.ar        1 UNL1     0.0305
     14 C         5.903608   5.238852   -2.964061 C.2        1 UNL1     0.0924
     15 N         7.121883   3.766872   -4.04499 N.pl3        1 UNL1     -0.3170
     16 C         5.852231   3.166858   -3.731585 C.3        1 UNL1     0.1275
     17 N         5.215172   4.120997   -2.751026 N.2        1 UNL1     -0.2557
     18 C         4.999636   3.226565   -4.995396 C.3        1 UNL1     0.0016
     19 C         5.755084   2.543744   -6.124397 C.3        1 UNL1     0.0026
     20 N         6.025778   1.165453   -5.739603 N.3        1 UNL1     -0.3018
     21 C         6.788935   1.0044   -4.500239 C.3        1 UNL1     0.0026
     22 C         6.009621   1.693645   -3.378853 C.3        1 UNL1     0.0016
     23 C         6.47091   0.347026   -6.849864 C.3        1 UNL1     0.0012
     24 C         5.315798   0.097817   -7.832395 C.3        1 UNL1     -0.0339
     25 C         5.341146   1.101957   -8.99649 C.3        1 UNL1     -0.0615
     26 C         5.355966   -1.336465   -8.330391 C.3        1 UNL1     -0.0615
     27 C         6.339197   8.939761   -2.223431 C.ar        1 UNL1     0.1347
     28 C         5.379802   9.208083   -1.263424 C.ar        1 UNL1     0.0342
     29 C         4.678664   8.072934   -0.80407 C.ar        1 UNL1     0.1435
     30 C         4.898812   6.79142   -1.310507 C.ar        1 UNL1     0.0774
     31 O         3.637433   8.185324   0.049283 O.3        1 UNL1     -0.4436
     32 C         2.916357   6.952286   -0.094037 C.3        1 UNL1     0.3143
     33 C         3.93023   5.960083   -0.626773 C.2        1 UNL1     0.2504
     34 C         4.932235   10.573621   -0.821736 C.3        1 UNL1     -0.0327
     35 O         2.555637   6.514351   1.221769 O.2        1 UNL1     -0.4528
     36 C         -0.686429   4.580987   0.822766 C.3        1 UNL1     0.0854
     37 C         -0.990958   3.32099   -0.075672 C.3        1 UNL1     0.0236
     38 C         -1.591099   2.05903   0.711115 C.3        1 UNL1     0.1131
     39 C         -0.865375   1.527379   2.012246 C.3        1 UNL1     0.0200
     40 C         0.795876   1.382569   2.053652 C.3        1 UNL1     0.0661
     41 C         1.75585   0.615127   0.884425 C.3        1 UNL1     0.0091
     42 C         3.46339   0.978929   0.321079 C.3        1 UNL1     0.0661
     43 C         7.494941   7.466245   -3.884954 C.2        1 UNL1     0.2131
     44 O         7.894562   8.365087   -4.602675 O.2        1 UNL1     -0.2851
     45 O         7.151083   9.975613   -2.680913 O.3        1 UNL1     -0.5056
     46 O         3.946747   4.756451   -0.496961 O.2        1 UNL1     -0.2836
     47 C         5.562787   1.3196   1.931758 C.3        1 UNL1     -0.0566
     48 O         3.912588   -0.432034   0.401825 O.3        1 UNL1     -0.3909
     49 C         0.922033   0.383149   -0.355909 C.3        1 UNL1     -0.0577
     50 O         1.395429   2.600392   2.447563 O.3        1 UNL1     -0.3910
     51 O         -0.810724   4.390138   2.21401 O.3        1 UNL1     -0.3753
     52 C         0.053814   3.161925   -1.228103 C.3        1 UNL1     -0.0564
     53 O         -2.193033   1.020491   -0.189684 O.3        1 UNL1     -0.4608
     54 C         -2.414416   -0.289972   0.144389 C.2        1 UNL1     0.3042
     55 O         -1.841457   -1.282123   -0.304156 O.2        1 UNL1     -0.2512
     56 C         -3.443799   -0.469838   1.223617 C.3        1 UNL1     0.0332
     57 C         -1.586976   2.19503   3.273875 C.3        1 UNL1     -0.0567
     58 C         1.841277   7.19775   -1.178233 C.3        1 UNL1     0.0210
     59 C         -1.155537   5.562028   2.951331 C.3        1 UNL1     0.0372
     60 C         0.642326   5.210867   0.592932 C.2        1 UNL1     -0.0208
     61 C         1.554879   5.645825   1.462876 C.2        1 UNL1     0.0882
     62 H         4.690141   2.733935   0.581772 H        1 UNL1     0.0365
     63 H         6.336281   3.611113   -0.249499 H        1 UNL1     0.0576
     64 H         8.343251   1.494009   -1.242836 H        1 UNL1     0.0615
     65 H         8.274574   4.611514   -1.428047 H        1 UNL1     0.0622
     66 H         -1.431358   5.327421   0.512984 H        1 UNL1     0.0645
     67 H         -1.856522   3.630445   -0.686897 H        1 UNL1     0.0362
     68 H         -2.538443   2.495191   1.063005 H        1 UNL1     0.0741
     69 H         -1.196474   0.515974   2.206773 H        1 UNL1     0.0359
     70 H         0.907773   0.721588   2.934358 H        1 UNL1     0.0600
     71 H         1.799814   -0.406358   1.310562 H        1 UNL1     0.0348
     72 H         3.357083   1.466306   1.301119 H        1 UNL1     0.0602
     73 H         0.760343   5.408995   -0.44344 H        1 UNL1     0.0628
     74 H         1.537211   5.434302   2.532541 H        1 UNL1     0.1022
     75 H         10.955884   2.260909   -3.427375 H        1 UNL1     0.0279
     76 H         10.797477   3.449883   -4.658045 H        1 UNL1     0.0279
     77 H         11.915796   3.671194   -3.252456 H        1 UNL1     0.0279
     78 H         9.065481   4.812314   -5.015092 H        1 UNL1     0.1553
     79 H         7.787475   3.339676   -4.662585 H        1 UNL1     0.1484
     80 H         4.03854   2.735037   -4.801846 H        1 UNL1     0.0317
     81 H         4.772608   4.263429   -5.265623 H        1 UNL1     0.0317
     82 H         6.685553   3.075668   -6.371772 H        1 UNL1     0.0428
     83 H         5.130087   2.599308   -7.016217 H        1 UNL1     0.0428
     84 H         6.90967   -0.038741   -4.191872 H        1 UNL1     0.0428
     85 H         7.81888   1.372987   -4.603556 H        1 UNL1     0.0428
     86 H         6.525975   1.442799   -2.470864 H        1 UNL1     0.0317
     87 H         5.03037   1.215461   -3.25434 H        1 UNL1     0.0317
     88 H         7.266832   0.889605   -7.376563 H        1 UNL1     0.0429
     89 H         6.903867   -0.598825   -6.499599 H        1 UNL1     0.0429
     90 H         4.36278   0.203668   -7.300638 H        1 UNL1     0.0308
     91 H         6.29138   1.060093   -9.537234 H        1 UNL1     0.0233
     92 H         4.522944   0.906093   -9.693478 H        1 UNL1     0.0233
     93 H         5.213166   2.137229   -8.657862 H        1 UNL1     0.0233
     94 H         4.659916   -1.465702   -9.166243 H        1 UNL1     0.0233
     95 H         6.360522   -1.579998   -8.687493 H        1 UNL1     0.0233
     96 H         5.081758   -2.041053   -7.540243 H        1 UNL1     0.0233
     97 H         4.13877   10.522895   -0.082094 H        1 UNL1     0.0280
     98 H         5.74463   11.143668   -0.352355 H        1 UNL1     0.0280
     99 H         4.558473   11.138669   -1.691286 H        1 UNL1     0.0280
     100 H         6.683768   10.726002   -3.003645 H        1 UNL1     0.2922
     101 H         4.700072   0.885167   2.436382 H        1 UNL1     0.0236
     102 H         6.013081   2.124696   2.511447 H        1 UNL1     0.0236
     103 H         6.319406   0.517279   1.930179 H        1 UNL1     0.0236
     104 H         4.332004   -0.558518   1.275359 H        1 UNL1     0.2098
     105 H         0.709721   1.282225   -0.928969 H        1 UNL1     0.0234
     106 H         1.291498   -0.404696   -1.012204 H        1 UNL1     0.0234
     107 H         0.0   -0.0   0.0 H        1 UNL1     0.0234
     108 H         1.196716   3.259097   1.754462 H        1 UNL1     0.2098
     109 H         1.078625   3.048623   -0.847791 H        1 UNL1     0.0234
     110 H         -0.17811   2.335252   -1.908226 H        1 UNL1     0.0234
     111 H         0.07473   4.045261   -1.880198 H        1 UNL1     0.0234
     112 H         -3.566128   -1.533888   1.447627 H        1 UNL1     0.0342
     113 H         -3.197163   0.092879   2.122707 H        1 UNL1     0.0342
     114 H         -4.404638   -0.092193   0.847668 H        1 UNL1     0.0342
     115 H         -2.656493   1.946231   3.31157 H        1 UNL1     0.0234
     116 H         -1.150582   1.914717   4.234622 H        1 UNL1     0.0234
     117 H         -1.626073   3.296906   3.226104 H        1 UNL1     0.0234
     118 H         0.939895   7.683916   -0.765727 H        1 UNL1     0.0309
     119 H         2.210544   7.786567   -2.023891 H        1 UNL1     0.0309
     120 H         1.453221   6.265945   -1.603978 H        1 UNL1     0.0309
     121 H         -0.351612   6.285063   2.816116 H        1 UNL1     0.0524
     122 H         -2.085839   6.027735   2.585691 H        1 UNL1     0.0524
     123 H         -1.271322   5.322854   4.004651 H        1 UNL1     0.0524
@<TRIPOS>BOND
     1     1     2    1
     2     1    42    1
     3     2     3    2
     4     3     4    1
     5     4     5    2
     6     5     7    1
     7     6    75    1
     8     6    76    1
     9     6    77    1
    10     7     9   am
    11     9    10    1
    12    10    11    2
    13    10    43    1
    14    11    14    1
    15    11    15    1
    16    12    13   ar
    17    12    27   ar
    18    12    43    1
    19    13    14    1
    20    13    30   ar
    21    14    17    2
    22    15    16    1
    23    16    17    1
    24    16    18    1
    25    16    22    1
    26    18    19    1
    27    19    20    1
    28    20    21    1
    29    21    22    1
    30    23    24    1
    31    23    88    1
    32    23    89    1
    33    24    25    1
    34    24    26    1
    35    24    90    1
    36    25    91    1
    37    25    92    1
    38    25    93    1
    39    26    94    1
    40    26    95    1
    41    26    96    1
    42    27    28   ar
    43    28    29   ar
    44    29    30   ar
    45    29    31    1
    46    30    33    1
    47    31    32    1
    48    32    33    1
    49    32    35    1
    50    34    97    1
    51    34    98    1
    52    34    99    1
    53    35    61    1
    54    36    37    1
    55    36    60    1
    56    37    38    1
    57    38    39    1
    58    39    40    1
    59    40    41    1
    60    41    42    1
    61    45   100    1
    62    47   101    1
    63    47   102    1
    64    47   103    1
    65    48   104    1
    66    49   105    1
    67    49   106    1
    68    49   107    1
    69    50   108    1
    70    51    59    1
    71    52   109    1
    72    52   110    1
    73    52   111    1
    74    53    54    1
    75    54    55    2
    76    54    56    1
    77    56   112    1
    78    56   113    1
    79    56   114    1
    80    57   115    1
    81    57   116    1
    82    57   117    1
    83    58   118    1
    84    58   119    1
    85    58   120    1
    86    59   121    1
    87    59   122    1
    88    59   123    1
    89    60    61    2
    90     1    47    1
    91     1    62    1
    92     2    63    1
    93     3    64    1
    94     4    65    1
    95     5     6    1
    96     7     8    2
    97     9    78    1
    98    15    79    1
    99    18    80    1
   100    18    81    1
   101    19    82    1
   102    19    83    1
   103    20    23    1
   104    21    84    1
   105    21    85    1
   106    22    86    1
   107    22    87    1
   108    27    45    1
   109    28    34    1
   110    32    58    1
   111    33    46    2
   112    36    51    1
   113    36    66    1
   114    37    52    1
   115    37    67    1
   116    38    53    1
   117    38    68    1
   118    42    48    1
   119    42    72    1
   120    43    44    2
   121    60    73    1
   122    61    74    1
   123    39    69    1
   124    39    57    1
   125    40    70    1
   126    40    50    1
   127    41    71    1
   128    41    49    1
