@<TRIPOS>MOLECULE
*****
 123 128 0 0 0
SMALL
GASTEIGER

@<TRIPOS>ATOM
     1 C         1.019922   4.196315   -3.334858 C.3        1 UNL1     0.0009
     2 C         0.460544   5.083557   -4.863561 C.2        1 UNL1     -0.0787
     3 C         0.645312   5.418978   -6.25977 C.2        1 UNL1     -0.0649
     4 C         -0.396562   6.295418   -7.266104 C.2        1 UNL1     -0.0542
     5 C         -0.750231   6.575873   -8.608989 C.2        1 UNL1     0.0115
     6 C         -0.313849   6.390376   -10.088342 C.3        1 UNL1     -0.0348
     7 C         -2.184753   7.228418   -8.914475 C.2        1 UNL1     0.2441
     8 O         -2.335369   8.415727   -9.167729 O.2        1 UNL1     -0.2702
     9 N         -3.219756   6.301636   -9.128938 N.am        1 UNL1     -0.2772
     10 C         -3.811983   5.958424   -7.93529 C.2        1 UNL1     0.1049
     11 C         -3.204803   5.018921   -7.233231 C.2        1 UNL1     0.0801
     12 C         -4.788351   6.938711   -5.851285 C.ar        1 UNL1     0.0753
     13 C         -3.94794   6.035062   -5.126208 C.ar        1 UNL1     0.0305
     14 C         -3.226639   4.955763   -5.796947 C.2        1 UNL1     0.0924
     15 N         -2.21074   4.185019   -7.583908 N.pl3        1 UNL1     -0.3170
     16 C         -2.03171   3.240145   -6.513667 C.3        1 UNL1     0.1275
     17 N         -2.490825   3.976443   -5.278839 N.2        1 UNL1     -0.2557
     18 C         -3.03641   2.113078   -6.732755 C.3        1 UNL1     0.0016
     19 C         -2.823362   1.535025   -8.122739 C.3        1 UNL1     0.0026
     20 N         -1.455703   1.044152   -8.220626 N.3        1 UNL1     -0.3018
     21 C         -0.41659   2.043585   -7.964217 C.3        1 UNL1     0.0026
     22 C         -0.647049   2.607684   -6.561158 C.3        1 UNL1     0.0016
     23 C         -1.237517   0.211436   -9.386655 C.3        1 UNL1     0.0012
     24 C         -1.415623   -1.272664   -9.029609 C.3        1 UNL1     -0.0339
     25 C         -0.462211   -2.164751   -9.841547 C.3        1 UNL1     -0.0615
     26 C         -1.233258   -1.474328   -7.535335 C.3        1 UNL1     -0.0615
     27 C         -5.566146   7.887597   -5.191914 C.ar        1 UNL1     0.1347
     28 C         -5.616852   8.001471   -3.814049 C.ar        1 UNL1     0.0342
     29 C         -4.744258   7.134127   -3.123067 C.ar        1 UNL1     0.1435
     30 C         -3.932325   6.203021   -3.771933 C.ar        1 UNL1     0.0774
     31 O         -4.758064   7.047655   -1.77498 O.3        1 UNL1     -0.4436
     32 C         -4.129185   5.789977   -1.485792 C.3        1 UNL1     0.3143
     33 C         -3.274417   5.486114   -2.699568 C.2        1 UNL1     0.2504
     34 C         -6.608392   8.81784   -3.03271 C.3        1 UNL1     -0.0327
     35 O         -3.233634   6.004009   -0.38787 O.2        1 UNL1     -0.4528
     36 C         -3.086835   2.710068   1.492685 C.3        1 UNL1     0.0854
     37 C         -2.681152   1.279647   0.966531 C.3        1 UNL1     0.0236
     38 C         -1.504182   0.565663   1.789157 C.3        1 UNL1     0.1131
     39 C         -0.158057   1.346888   2.071828 C.3        1 UNL1     0.0200
     40 C         0.565214   2.246945   0.867994 C.3        1 UNL1     0.0661
     41 C         0.895733   1.714497   -0.708351 C.3        1 UNL1     0.0091
     42 C         0.925996   2.636496   -2.294039 C.3        1 UNL1     0.0661
     43 C         -4.872544   6.77291   -7.32359 C.2        1 UNL1     0.2131
     44 O         -5.802372   7.182166   -7.994908 O.2        1 UNL1     -0.2851
     45 O         -6.321264   8.759078   -5.974061 O.3        1 UNL1     -0.5056
     46 O         -2.265073   4.820478   -2.76286 O.2        1 UNL1     -0.2836
     47 C         2.241496   4.920402   -2.707614 C.3        1 UNL1     -0.0566
     48 O         2.224576   2.068865   -2.730619 O.3        1 UNL1     -0.3909
     49 C         0.136733   0.430513   -0.958948 C.3        1 UNL1     -0.0577
     50 O         0.035122   3.556753   0.834381 O.3        1 UNL1     -0.3910
     51 O         -2.260456   3.254342   2.496824 O.3        1 UNL1     -0.3753
     52 C         -2.785005   1.181417   -0.590554 C.3        1 UNL1     -0.0564
     53 O         -1.377436   -0.902391   1.50441 O.3        1 UNL1     -0.4608
     54 C         -0.199298   -1.597361   1.421122 C.2        1 UNL1     0.3042
     55 O         0.865252   -1.208054   0.942568 O.2        1 UNL1     -0.2512
     56 C         -0.259229   -2.96021   2.050219 C.3        1 UNL1     0.0332
     57 C         -0.27847   2.005314   3.524464 C.3        1 UNL1     -0.0567
     58 C         -5.264042   4.742945   -1.40005 C.3        1 UNL1     0.0210
     59 C         -2.88644   3.40906   3.769645 C.3        1 UNL1     0.0372
     60 C         -3.224761   3.751954   0.43883 C.2        1 UNL1     -0.0208
     61 C         -2.787929   5.011659   0.406217 C.2        1 UNL1     0.0882
     62 H         0.131409   4.573264   -2.814122 H        1 UNL1     0.0365
     63 H         -0.398425   5.635274   -4.47594 H        1 UNL1     0.0576
     64 H         1.444381   4.971533   -6.855076 H        1 UNL1     0.0615
     65 H         -1.100715   6.760239   -6.570695 H        1 UNL1     0.0622
     66 H         -4.092326   2.573842   1.915151 H        1 UNL1     0.0645
     67 H         -3.546012   0.643943   1.224326 H        1 UNL1     0.0362
     68 H         -1.996752   0.469173   2.768743 H        1 UNL1     0.0741
     69 H         0.61209   0.631727   2.328392 H        1 UNL1     0.0359
     70 H         1.576041   2.3687   1.30212 H        1 UNL1     0.0600
     71 H         1.926935   1.333877   -0.571573 H        1 UNL1     0.0348
     72 H         1.017862   3.393241   -1.50144 H        1 UNL1     0.0602
     73 H         -3.874856   3.395903   -0.321337 H        1 UNL1     0.0628
     74 H         -2.074549   5.435466   1.113829 H        1 UNL1     0.1022
     75 H         -1.153825   5.974916   -10.695687 H        1 UNL1     0.0279
     76 H         -0.054563   7.294461   -10.634666 H        1 UNL1     0.0279
     77 H         0.45007   5.608747   -10.211568 H        1 UNL1     0.0279
     78 H         -2.838   5.450974   -9.537245 H        1 UNL1     0.1553
     79 H         -1.962961   3.982629   -8.535 H        1 UNL1     0.1484
     80 H         -2.894528   1.351691   -5.956272 H        1 UNL1     0.0317
     81 H         -4.063581   2.478891   -6.629071 H        1 UNL1     0.0317
     82 H         -3.035458   2.275114   -8.908356 H        1 UNL1     0.0428
     83 H         -3.551066   0.734395   -8.258713 H        1 UNL1     0.0428
     84 H         0.597562   1.632115   -7.965244 H        1 UNL1     0.0428
     85 H         -0.391609   2.816748   -8.744545 H        1 UNL1     0.0428
     86 H         0.202397   3.232889   -6.357322 H        1 UNL1     0.0317
     87 H         -0.557813   1.807514   -5.816268 H        1 UNL1     0.0317
     88 H         -1.985573   0.480991   -10.143653 H        1 UNL1     0.0429
     89 H         -0.250483   0.396431   -9.829729 H        1 UNL1     0.0429
     90 H         -2.446947   -1.573566   -9.248791 H        1 UNL1     0.0308
     91 H         -0.666654   -2.092669   -10.913979 H        1 UNL1     0.0233
     92 H         0.578174   -1.888066   -9.655394 H        1 UNL1     0.0233
     93 H         -0.54992   -3.224092   -9.571474 H        1 UNL1     0.0233
     94 H         -0.518701   -2.283074   -7.347787 H        1 UNL1     0.0233
     95 H         -0.836815   -0.562067   -7.08083 H        1 UNL1     0.0233
     96 H         -2.178933   -1.728977   -7.048692 H        1 UNL1     0.0233
     97 H         -7.182251   8.208794   -2.340626 H        1 UNL1     0.0280
     98 H         -6.120068   9.588073   -2.421533 H        1 UNL1     0.0280
     99 H         -7.31111   9.307846   -3.726379 H        1 UNL1     0.0280
     100 H         -5.844183   9.171557   -6.672542 H        1 UNL1     0.2922
     101 H         2.412912   4.545557   -1.698771 H        1 UNL1     0.0236
     102 H         2.15478   6.006176   -2.731254 H        1 UNL1     0.0236
     103 H         3.176268   4.701272   -3.250179 H        1 UNL1     0.0236
     104 H         2.797309   2.001745   -1.941669 H        1 UNL1     0.2098
     105 H         -0.84513   0.568883   -1.404605 H        1 UNL1     0.0234
     106 H         0.69553   -0.329705   -1.504604 H        1 UNL1     0.0234
     107 H         0.0   -0.0   0.0 H        1 UNL1     0.0234
     108 H         0.313571   3.960819   -0.009991 H        1 UNL1     0.2098
     109 H         -3.807202   1.361846   -0.951483 H        1 UNL1     0.0234
     110 H         -2.089495   1.848432   -1.111227 H        1 UNL1     0.0234
     111 H         -2.514589   0.180277   -0.951858 H        1 UNL1     0.0234
     112 H         0.705622   -3.464222   1.938949 H        1 UNL1     0.0342
     113 H         -0.558376   -2.915589   3.096337 H        1 UNL1     0.0342
     114 H         -1.012713   -3.552998   1.513537 H        1 UNL1     0.0342
     115 H         0.693106   2.046876   4.035834 H        1 UNL1     0.0234
     116 H         -0.691163   3.016116   3.520899 H        1 UNL1     0.0234
     117 H         -0.867299   1.399555   4.234589 H        1 UNL1     0.0234
     118 H         -5.416424   4.380229   -0.368438 H        1 UNL1     0.0309
     119 H         -6.216924   5.108817   -1.79547 H        1 UNL1     0.0309
     120 H         -5.03527   3.828427   -1.958106 H        1 UNL1     0.0309
     121 H         -2.224522   2.97359   4.5177 H        1 UNL1     0.0524
     122 H         -3.036799   4.468558   4.035901 H        1 UNL1     0.0524
     123 H         -3.847708   2.90314   3.77971 H        1 UNL1     0.0524
@<TRIPOS>BOND
     1     1     2    1
     2     1    42    1
     3     2     3    2
     4     3     4    1
     5     4     5    2
     6     5     7    1
     7     6    75    1
     8     6    76    1
     9     6    77    1
    10     7     9   am
    11     9    10    1
    12    10    11    2
    13    10    43    1
    14    11    14    1
    15    11    15    1
    16    12    13   ar
    17    12    27   ar
    18    12    43    1
    19    13    14    1
    20    13    30   ar
    21    14    17    2
    22    15    16    1
    23    16    17    1
    24    16    18    1
    25    16    22    1
    26    18    19    1
    27    19    20    1
    28    20    21    1
    29    21    22    1
    30    23    24    1
    31    23    88    1
    32    23    89    1
    33    24    25    1
    34    24    26    1
    35    24    90    1
    36    25    91    1
    37    25    92    1
    38    25    93    1
    39    26    94    1
    40    26    95    1
    41    26    96    1
    42    27    28   ar
    43    28    29   ar
    44    29    30   ar
    45    29    31    1
    46    30    33    1
    47    31    32    1
    48    32    33    1
    49    32    35    1
    50    34    97    1
    51    34    98    1
    52    34    99    1
    53    35    61    1
    54    36    37    1
    55    36    60    1
    56    37    38    1
    57    38    39    1
    58    39    40    1
    59    40    41    1
    60    41    42    1
    61    45   100    1
    62    47   101    1
    63    47   102    1
    64    47   103    1
    65    48   104    1
    66    49   105    1
    67    49   106    1
    68    49   107    1
    69    50   108    1
    70    51    59    1
    71    52   109    1
    72    52   110    1
    73    52   111    1
    74    53    54    1
    75    54    55    2
    76    54    56    1
    77    56   112    1
    78    56   113    1
    79    56   114    1
    80    57   115    1
    81    57   116    1
    82    57   117    1
    83    58   118    1
    84    58   119    1
    85    58   120    1
    86    59   121    1
    87    59   122    1
    88    59   123    1
    89    60    61    2
    90     1    47    1
    91     1    62    1
    92     2    63    1
    93     3    64    1
    94     4    65    1
    95     5     6    1
    96     7     8    2
    97     9    78    1
    98    15    79    1
    99    18    80    1
   100    18    81    1
   101    19    82    1
   102    19    83    1
   103    20    23    1
   104    21    84    1
   105    21    85    1
   106    22    86    1
   107    22    87    1
   108    27    45    1
   109    28    34    1
   110    32    58    1
   111    33    46    2
   112    36    51    1
   113    36    66    1
   114    37    52    1
   115    37    67    1
   116    38    53    1
   117    38    68    1
   118    42    48    1
   119    42    72    1
   120    43    44    2
   121    60    73    1
   122    61    74    1
   123    39    69    1
   124    39    57    1
   125    40    70    1
   126    40    50    1
   127    41    71    1
   128    41    49    1
