@<TRIPOS>MOLECULE
*****
 123 128 0 0 0
SMALL
GASTEIGER

@<TRIPOS>ATOM
     1 C         -0.122351   3.909499   -1.634581 C.3        1 UNL1     0.0009
     2 C         -1.529318   4.716942   -2.532086 C.2        1 UNL1     -0.0787
     3 C         -2.135019   5.175619   -3.764478 C.2        1 UNL1     -0.0649
     4 C         -3.686686   5.815591   -3.98611 C.2        1 UNL1     -0.0542
     5 C         -4.709967   6.079258   -4.929749 C.2        1 UNL1     0.0115
     6 C         -5.044055   6.105667   -6.446657 C.3        1 UNL1     -0.0348
     7 C         -6.200195   6.35822   -4.402124 C.2        1 UNL1     0.2441
     8 O         -6.683103   7.480174   -4.334698 O.2        1 UNL1     -0.2702
     9 N         -7.002565   5.211518   -4.27011 N.am        1 UNL1     -0.2772
     10 C         -6.840659   4.653119   -3.022993 C.2        1 UNL1     0.1049
     11 C         -5.795895   3.859502   -2.871795 C.2        1 UNL1     0.0801
     12 C         -6.814305   5.216044   -0.585832 C.ar        1 UNL1     0.0753
     13 C         -5.567965   4.515616   -0.51767 C.ar        1 UNL1     0.0305
     14 C         -5.085132   3.702792   -1.631781 C.2        1 UNL1     0.0924
     15 N         -4.970265   3.333444   -3.792733 N.pl3        1 UNL1     -0.3170
     16 C         -4.102317   2.401269   -3.123426 C.3        1 UNL1     0.1275
     17 N         -4.015855   2.915459   -1.707143 N.2        1 UNL1     -0.2557
     18 C         -4.842727   1.069541   -3.045998 C.3        1 UNL1     0.0016
     19 C         -5.245052   0.65431   -4.452166 C.3        1 UNL1     0.0026
     20 N         -4.043888   0.539347   -5.267652 N.3        1 UNL1     -0.3018
     21 C         -3.231134   1.754526   -5.352153 C.3        1 UNL1     0.0026
     22 C         -2.834294   2.150997   -3.929049 C.3        1 UNL1     0.0016
     23 C         -4.280898   -0.134177   -6.528936 C.3        1 UNL1     0.0012
     24 C         -4.308532   0.879296   -7.683867 C.3        1 UNL1     -0.0339
     25 C         -5.305049   0.459323   -8.77686 C.3        1 UNL1     -0.0615
     26 C         -4.615808   2.267941   -7.150926 C.3        1 UNL1     -0.0615
     27 C         -7.325352   5.889283   0.52128 C.ar        1 UNL1     0.1347
     28 C         -6.702322   5.899507   1.756505 C.ar        1 UNL1     0.0342
     29 C         -5.452828   5.244513   1.786694 C.ar        1 UNL1     0.1435
     30 C         -4.911134   4.596549   0.675869 C.ar        1 UNL1     0.0774
     31 O         -4.77481   5.072929   2.942486 O.3        1 UNL1     -0.4436
     32 C         -3.856392   4.004031   2.668919 C.3        1 UNL1     0.3143
     33 C         -3.681639   4.007377   1.163707 C.2        1 UNL1     0.2504
     34 C         -7.307442   6.382267   3.045253 C.3        1 UNL1     -0.0327
     35 O         -2.593158   4.372092   3.23639 O.2        1 UNL1     -0.4528
     36 C         -0.894339   1.115697   4.194507 C.3        1 UNL1     0.0854
     37 C         -0.538128   -0.126047   3.28968 C.3        1 UNL1     0.0236
     38 C         1.004575   -0.563048   3.318663 C.3        1 UNL1     0.1131
     39 C         2.131902   0.519142   3.073172 C.3        1 UNL1     0.0200
     40 C         1.968083   1.648855   1.856886 C.3        1 UNL1     0.0661
     41 C         1.563145   1.319551   0.242824 C.3        1 UNL1     0.0091
     42 C         0.619084   2.315932   -0.974294 C.3        1 UNL1     0.0661
     43 C         -7.588403   5.126941   -1.848802 C.2        1 UNL1     0.2131
     44 O         -8.787973   5.324259   -1.918329 O.2        1 UNL1     -0.2851
     45 O         -8.521925   6.584244   0.357935 O.3        1 UNL1     -0.5056
     46 O         -2.732126   3.629455   0.514513 O.2        1 UNL1     -0.2836
     47 C         1.082818   4.882884   -1.534225 C.3        1 UNL1     -0.0566
     48 O         1.607638   2.130434   -2.064004 O.3        1 UNL1     -0.3909
     49 C         1.044844   -0.098229   0.149235 C.3        1 UNL1     -0.0577
     50 O         1.25063   2.777409   2.314434 O.3        1 UNL1     -0.3910
     51 O         0.199883   1.790262   4.77336 O.3        1 UNL1     -0.3753
     52 C         -1.384204   -0.149735   1.974939 C.3        1 UNL1     -0.0564
     53 O         1.25295   -1.928069   2.746513 O.3        1 UNL1     -0.4608
     54 C         1.722339   -3.009618   3.44498 C.2        1 UNL1     0.3042
     55 O         2.864846   -3.466157   3.435584 O.2        1 UNL1     -0.2512
     56 C         0.69677   -3.633406   4.348201 C.3        1 UNL1     0.0332
     57 C         2.628232   1.031791   4.504612 C.3        1 UNL1     -0.0567
     58 C         -4.570024   2.696816   3.085388 C.3        1 UNL1     0.0210
     59 C         0.420168   1.501526   6.153205 C.3        1 UNL1     0.0372
     60 C         -1.738119   2.150968   3.537689 C.2        1 UNL1     -0.0208
     61 C         -1.628645   3.480156   3.533291 C.2        1 UNL1     0.0882
     62 H         -0.685696   4.011453   -0.699188 H        1 UNL1     0.0365
     63 H         -2.167906   5.003379   -1.693856 H        1 UNL1     0.0576
     64 H         -1.670841   4.987338   -4.735146 H        1 UNL1     0.0615
     65 H         -4.024071   6.038783   -2.970315 H        1 UNL1     0.0622
     66 H         -1.506464   0.698878   5.006672 H        1 UNL1     0.0645
     67 H         -1.017227   -0.97792   3.802844 H        1 UNL1     0.0362
     68 H         1.096159   -0.844445   4.378828 H        1 UNL1     0.0741
     69 H         3.048608   0.011783   2.803644 H        1 UNL1     0.0359
     70 H         3.015131   1.999306   1.779855 H        1 UNL1     0.0600
     71 H         2.575966   1.209516   -0.191965 H        1 UNL1     0.0348
     72 H         0.94624   3.019496   -0.195011 H        1 UNL1     0.0602
     73 H         -2.597984   1.687971   3.12114 H        1 UNL1     0.0628
     74 H         -0.754642   4.028083   3.887032 H        1 UNL1     0.1022
     75 H         -5.466672   7.097472   -6.737781 H        1 UNL1     0.0279
     76 H         -4.204745   5.998905   -7.1302 H        1 UNL1     0.0279
     77 H         -5.871442   5.431215   -6.711694 H        1 UNL1     0.0279
     78 H         -6.719679   4.515235   -4.956581 H        1 UNL1     0.1553
     79 H         -5.196688   3.261823   -4.767687 H        1 UNL1     0.1484
     80 H         -4.188235   0.32317   -2.579804 H        1 UNL1     0.0317
     81 H         -5.729243   1.151238   -2.407981 H        1 UNL1     0.0317
     82 H         -5.959301   1.362638   -4.897175 H        1 UNL1     0.0428
     83 H         -5.773025   -0.296543   -4.373607 H        1 UNL1     0.0428
     84 H         -2.295552   1.619007   -5.903636 H        1 UNL1     0.0428
     85 H         -3.748871   2.555464   -5.897829 H        1 UNL1     0.0428
     86 H         -2.135737   2.959791   -4.037944 H        1 UNL1     0.0317
     87 H         -2.232555   1.355657   -3.472497 H        1 UNL1     0.0317
     88 H         -3.455674   -0.837555   -6.700861 H        1 UNL1     0.0429
     89 H         -5.205636   -0.724669   -6.498066 H        1 UNL1     0.0429
     90 H         -3.308627   0.943832   -8.129106 H        1 UNL1     0.0308
     91 H         -6.256891   0.13656   -8.344513 H        1 UNL1     0.0233
     92 H         -5.487364   1.283337   -9.470669 H        1 UNL1     0.0233
     93 H         -4.932261   -0.374648   -9.383784 H        1 UNL1     0.0233
     94 H         -5.014658   2.900089   -7.951641 H        1 UNL1     0.0233
     95 H         -5.370688   2.206789   -6.362016 H        1 UNL1     0.0233
     96 H         -3.720081   2.747193   -6.746009 H        1 UNL1     0.0233
     97 H         -8.391969   6.413238   2.999728 H        1 UNL1     0.0280
     98 H         -7.060729   5.725665   3.889802 H        1 UNL1     0.0280
     99 H         -6.941728   7.398252   3.266888 H        1 UNL1     0.0280
     100 H         -8.692675   6.8682   -0.52288 H        1 UNL1     0.2922
     101 H         1.130564   5.502444   -2.429502 H        1 UNL1     0.0236
     102 H         2.027141   4.376908   -1.336167 H        1 UNL1     0.0236
     103 H         0.968373   5.599445   -0.703782 H        1 UNL1     0.0236
     104 H         2.277096   1.491838   -1.749374 H        1 UNL1     0.2098
     105 H         1.447584   -0.669595   -0.683323 H        1 UNL1     0.0234
     106 H         1.119664   -0.672313   1.072683 H        1 UNL1     0.0234
     107 H         -0.0   0.0   0.0 H        1 UNL1     0.0234
     108 H         1.214826   3.416878   1.577165 H        1 UNL1     0.2098
     109 H         -1.347147   0.80902   1.439095 H        1 UNL1     0.0234
     110 H         -1.100745   -0.960557   1.295261 H        1 UNL1     0.0234
     111 H         -2.446979   -0.334275   2.180851 H        1 UNL1     0.0234
     112 H         1.140176   -4.474515   4.889748 H        1 UNL1     0.0342
     113 H         0.263596   -2.909872   5.037188 H        1 UNL1     0.0342
     114 H         -0.116964   -4.02656   3.723356 H        1 UNL1     0.0342
     115 H         3.700551   1.271206   4.50339 H        1 UNL1     0.0234
     116 H         2.095669   1.912062   4.870055 H        1 UNL1     0.0234
     117 H         2.583808   0.256836   5.289095 H        1 UNL1     0.0234
     118 H         -4.624109   1.971284   2.254915 H        1 UNL1     0.0309
     119 H         -4.110009   2.213973   3.953403 H        1 UNL1     0.0309
     120 H         -5.621052   2.857393   3.349321 H        1 UNL1     0.0309
     121 H         0.93256   2.357538   6.591446 H        1 UNL1     0.0524
     122 H         -0.523002   1.360096   6.706798 H        1 UNL1     0.0524
     123 H         1.027843   0.60715   6.257691 H        1 UNL1     0.0524
@<TRIPOS>BOND
     1     1     2    1
     2     1    42    1
     3     2     3    2
     4     3     4    1
     5     4     5    2
     6     5     7    1
     7     6    75    1
     8     6    76    1
     9     6    77    1
    10     7     9   am
    11     9    10    1
    12    10    11    2
    13    10    43    1
    14    11    14    1
    15    11    15    1
    16    12    13   ar
    17    12    27   ar
    18    12    43    1
    19    13    14    1
    20    13    30   ar
    21    14    17    2
    22    15    16    1
    23    16    17    1
    24    16    18    1
    25    16    22    1
    26    18    19    1
    27    19    20    1
    28    20    21    1
    29    21    22    1
    30    23    24    1
    31    23    88    1
    32    23    89    1
    33    24    25    1
    34    24    26    1
    35    24    90    1
    36    25    91    1
    37    25    92    1
    38    25    93    1
    39    26    94    1
    40    26    95    1
    41    26    96    1
    42    27    28   ar
    43    28    29   ar
    44    29    30   ar
    45    29    31    1
    46    30    33    1
    47    31    32    1
    48    32    33    1
    49    32    35    1
    50    34    97    1
    51    34    98    1
    52    34    99    1
    53    35    61    1
    54    36    37    1
    55    36    60    1
    56    37    38    1
    57    38    39    1
    58    39    40    1
    59    40    41    1
    60    41    42    1
    61    45   100    1
    62    47   101    1
    63    47   102    1
    64    47   103    1
    65    48   104    1
    66    49   105    1
    67    49   106    1
    68    49   107    1
    69    50   108    1
    70    51    59    1
    71    52   109    1
    72    52   110    1
    73    52   111    1
    74    53    54    1
    75    54    55    2
    76    54    56    1
    77    56   112    1
    78    56   113    1
    79    56   114    1
    80    57   115    1
    81    57   116    1
    82    57   117    1
    83    58   118    1
    84    58   119    1
    85    58   120    1
    86    59   121    1
    87    59   122    1
    88    59   123    1
    89    60    61    2
    90     1    47    1
    91     1    62    1
    92     2    63    1
    93     3    64    1
    94     4    65    1
    95     5     6    1
    96     7     8    2
    97     9    78    1
    98    15    79    1
    99    18    80    1
   100    18    81    1
   101    19    82    1
   102    19    83    1
   103    20    23    1
   104    21    84    1
   105    21    85    1
   106    22    86    1
   107    22    87    1
   108    27    45    1
   109    28    34    1
   110    32    58    1
   111    33    46    2
   112    36    51    1
   113    36    66    1
   114    37    52    1
   115    37    67    1
   116    38    53    1
   117    38    68    1
   118    42    48    1
   119    42    72    1
   120    43    44    2
   121    60    73    1
   122    61    74    1
   123    39    69    1
   124    39    57    1
   125    40    70    1
   126    40    50    1
   127    41    71    1
   128    41    49    1
