@<TRIPOS>MOLECULE
*****
 123 128 0 0 0
SMALL
GASTEIGER

@<TRIPOS>ATOM
     1 C         3.482207   0.659981   -4.177369 C.3        1 UNL1     0.0009
     2 C         5.033262   0.0538   -4.992115 C.2        1 UNL1     -0.0787
     3 C         6.448241   0.196966   -5.263007 C.2        1 UNL1     -0.0649
     4 C         7.463155   -0.876319   -6.090272 C.2        1 UNL1     -0.0542
     5 C         8.806676   -1.269648   -6.307808 C.2        1 UNL1     0.0115
     6 C         10.28798   -0.875807   -6.054924 C.3        1 UNL1     -0.0348
     7 C         9.100025   -2.714401   -6.943122 C.2        1 UNL1     0.2441
     8 O         9.40327   -2.875902   -8.117211 O.2        1 UNL1     -0.2702
     9 N         9.24129   -3.752374   -6.005674 N.am        1 UNL1     -0.2772
     10 C         8.016345   -4.308679   -5.716957 C.2        1 UNL1     0.1049
     11 C         7.289686   -3.678539   -4.811908 C.2        1 UNL1     0.0801
     12 C         5.952216   -5.227144   -6.790794 C.ar        1 UNL1     0.0753
     13 C         5.211019   -4.363314   -5.923019 C.ar        1 UNL1     0.0305
     14 C         5.851992   -3.658506   -4.815115 C.2        1 UNL1     0.0924
     15 N         7.630333   -2.692543   -3.964383 N.pl3        1 UNL1     -0.3170
     16 C         6.523325   -2.479674   -3.070249 C.3        1 UNL1     0.1275
     17 N         5.31092   -2.905003   -3.862014 N.2        1 UNL1     -0.2557
     18 C         6.660853   -3.486883   -1.932569 C.3        1 UNL1     0.0016
     19 C         8.028315   -3.312499   -1.291298 C.3        1 UNL1     0.0026
     20 N         8.143247   -1.946773   -0.798741 N.3        1 UNL1     -0.3018
     21 C         7.963569   -0.903694   -1.810705 C.3        1 UNL1     0.0026
     22 C         6.581901   -1.095061   -2.438612 C.3        1 UNL1     0.0016
     23 C         9.275492   -1.759982   0.086568 C.3        1 UNL1     0.0012
     24 C         9.036829   -2.476824   1.424826 C.3        1 UNL1     -0.0339
     25 C         9.670412   -1.707565   2.595668 C.3        1 UNL1     -0.0615
     26 C         7.549467   -2.696501   1.639943 C.3        1 UNL1     -0.0615
     27 C         5.314935   -5.988357   -7.767803 C.ar        1 UNL1     0.1347
     28 C         3.942896   -5.999413   -7.945106 C.ar        1 UNL1     0.0342
     29 C         3.238354   -5.104513   -7.112077 C.ar        1 UNL1     0.1435
     30 C         3.86696   -4.308926   -6.153372 C.ar        1 UNL1     0.0774
     31 O         1.887884   -5.078941   -7.087935 O.3        1 UNL1     -0.4436
     32 C         1.559441   -4.438124   -5.84602 C.3        1 UNL1     0.3143
     33 C         2.782289   -3.618012   -5.48787 C.2        1 UNL1     0.2504
     34 C         3.171493   -6.970339   -8.795012 C.3        1 UNL1     -0.0327
     35 O         0.499103   -3.511751   -6.112045 O.2        1 UNL1     -0.4528
     36 C         -1.526282   -3.300465   -2.908725 C.3        1 UNL1     0.0854
     37 C         -1.055062   -2.90588   -1.456217 C.3        1 UNL1     0.0236
     38 C         -1.875116   -1.70338   -0.782979 C.3        1 UNL1     0.1131
     39 C         -2.082138   -0.351996   -1.578701 C.3        1 UNL1     0.0200
     40 C         -0.817528   0.333312   -2.423421 C.3        1 UNL1     0.0661
     41 C         0.741543   0.619573   -1.819297 C.3        1 UNL1     0.0091
     42 C         2.36827   0.601023   -2.667128 C.3        1 UNL1     0.0661
     43 C         7.412231   -5.353513   -6.55703 C.2        1 UNL1     0.2131
     44 O         8.074346   -6.303662   -6.933272 O.2        1 UNL1     -0.2851
     45 O         6.114117   -6.768489   -8.600954 O.3        1 UNL1     -0.5056
     46 O         2.844183   -2.608914   -4.821729 O.2        1 UNL1     -0.2836
     47 C         2.924862   1.897037   -4.931718 C.3        1 UNL1     -0.0566
     48 O         2.815839   1.888106   -2.082137 O.3        1 UNL1     -0.3909
     49 C         0.910452   -0.14248   -0.523829 C.3        1 UNL1     -0.0577
     50 O         -0.738998   -0.201504   -3.72938 O.3        1 UNL1     -0.3910
     51 O         -2.479761   -2.446957   -3.50019 O.3        1 UNL1     -0.3753
     52 C         0.492151   -3.054565   -1.286004 C.3        1 UNL1     -0.0564
     53 O         -1.654802   -1.580495   0.696442 O.3        1 UNL1     -0.4608
     54 C         -1.571071   -0.403196   1.392778 C.2        1 UNL1     0.3042
     55 O         -0.552905   0.145641   1.812247 O.2        1 UNL1     -0.2512
     56 C         -2.896862   0.27572   1.587883 C.3        1 UNL1     0.0332
     57 C         -3.505755   -0.432213   -2.303309 C.3        1 UNL1     -0.0567
     58 C         1.392495   -5.566835   -4.802148 C.3        1 UNL1     0.0210
     59 C         -3.794388   -2.992986   -3.597521 C.3        1 UNL1     0.0372
     60 C         -0.429964   -3.472067   -3.900592 C.2        1 UNL1     -0.0208
     61 C         -0.326587   -3.040188   -5.158184 C.2        1 UNL1     0.0882
     62 H         2.953756   -0.21419   -4.576463 H        1 UNL1     0.0365
     63 H         4.646646   -0.795232   -5.559692 H        1 UNL1     0.0576
     64 H         7.045296   0.979781   -4.789897 H        1 UNL1     0.0615
     65 H         6.769711   -1.561407   -6.585523 H        1 UNL1     0.0622
     66 H         -1.983681   -4.292859   -2.790455 H        1 UNL1     0.0645
     67 H         -1.366974   -3.760965   -0.831637 H        1 UNL1     0.0362
     68 H         -2.872036   -2.167028   -0.731001 H        1 UNL1     0.0741
     69 H         -2.348873   0.427436   -0.877455 H        1 UNL1     0.0359
     70 H         -1.215956   1.355934   -2.566805 H        1 UNL1     0.0600
     71 H         0.617445   1.655458   -1.447145 H        1 UNL1     0.0348
     72 H         1.614424   0.713549   -3.459826 H        1 UNL1     0.0602
     73 H         0.293721   -4.142859   -3.508714 H        1 UNL1     0.0628
     74 H         -0.992827   -2.307868   -5.615425 H        1 UNL1     0.1022
     75 H         10.34711   0.034533   -5.41086 H        1 UNL1     0.0279
     76 H         10.893188   -1.592249   -5.504014 H        1 UNL1     0.0279
     77 H         10.797631   -0.530115   -6.966217 H        1 UNL1     0.0279
     78 H         9.620877   -3.380046   -5.13771 H        1 UNL1     0.1553
     79 H         8.577891   -2.471849   -3.718702 H        1 UNL1     0.1484
     80 H         5.854545   -3.320225   -1.208097 H        1 UNL1     0.0317
     81 H         6.544281   -4.511719   -2.301043 H        1 UNL1     0.0317
     82 H         8.840716   -3.549541   -1.993955 H        1 UNL1     0.0428
     83 H         8.105974   -4.04141   -0.484014 H        1 UNL1     0.0428
     84 H         7.975152   0.111244   -1.401343 H        1 UNL1     0.0428
     85 H         8.779118   -0.903708   -2.547046 H        1 UNL1     0.0428
     86 H         6.431936   -0.24196   -3.074 H        1 UNL1     0.0317
     87 H         5.803817   -0.981826   -1.673851 H        1 UNL1     0.0317
     88 H         10.159926   -2.199797   -0.392631 H        1 UNL1     0.0429
     89 H         9.489624   -0.694545   0.240731 H        1 UNL1     0.0429
     90 H         9.484108   -3.476956   1.381343 H        1 UNL1     0.0308
     91 H         9.44258   -0.638922   2.539139 H        1 UNL1     0.0233
     92 H         9.3165   -2.099615   3.552043 H        1 UNL1     0.0233
     93 H         10.763161   -1.799378   2.61309 H        1 UNL1     0.0233
     94 H         7.338487   -2.835689   2.705753 H        1 UNL1     0.0233
     95 H         6.989176   -1.822291   1.296734 H        1 UNL1     0.0233
     96 H         7.194006   -3.578153   1.099289 H        1 UNL1     0.0233
     97 H         2.435642   -7.522028   -8.21761 H        1 UNL1     0.0280
     98 H         2.610966   -6.466829   -9.593475 H        1 UNL1     0.0280
     99 H         3.866262   -7.694369   -9.251269 H        1 UNL1     0.0280
     100 H         6.844474   -6.313126   -8.98154 H        1 UNL1     0.2922
     101 H         1.870565   2.030622   -4.690327 H        1 UNL1     0.0236
     102 H         3.096329   1.85659   -6.006867 H        1 UNL1     0.0236
     103 H         3.407533   2.833311   -4.605202 H        1 UNL1     0.0236
     104 H         2.146431   2.162052   -1.425009 H        1 UNL1     0.2098
     105 H         1.058901   -1.212212   -0.648121 H        1 UNL1     0.0234
     106 H         1.661949   0.26732   0.150888 H        1 UNL1     0.0234
     107 H         0.0   0.0   0.0 H        1 UNL1     0.0234
     108 H         0.13086   0.051105   -4.094488 H        1 UNL1     0.2098
     109 H         0.831097   -4.087346   -1.447842 H        1 UNL1     0.0234
     110 H         1.063063   -2.37648   -1.929435 H        1 UNL1     0.0234
     111 H         0.814624   -2.791709   -0.269704 H        1 UNL1     0.0234
     112 H         -2.75732   1.215875   2.130083 H        1 UNL1     0.0342
     113 H         -3.414629   0.441941   0.644415 H        1 UNL1     0.0342
     114 H         -3.529564   -0.377763   2.204174 H        1 UNL1     0.0342
     115 H         -3.987362   0.553232   -2.367667 H        1 UNL1     0.0234
     116 H         -3.467231   -0.845441   -3.313164 H        1 UNL1     0.0234
     117 H         -4.259139   -1.000636   -1.731253 H        1 UNL1     0.0234
     118 H         0.341253   -5.688123   -4.487207 H        1 UNL1     0.0309
     119 H         1.77645   -6.531893   -5.147756 H        1 UNL1     0.0309
     120 H         1.914208   -5.351576   -3.86322 H        1 UNL1     0.0309
     121 H         -4.29586   -2.498902   -4.429245 H        1 UNL1     0.0524
     122 H         -3.783333   -4.074646   -3.811828 H        1 UNL1     0.0524
     123 H         -4.341675   -2.821932   -2.674856 H        1 UNL1     0.0524
@<TRIPOS>BOND
     1     1     2    1
     2     1    42    1
     3     2     3    2
     4     3     4    1
     5     4     5    2
     6     5     7    1
     7     6    75    1
     8     6    76    1
     9     6    77    1
    10     7     9   am
    11     9    10    1
    12    10    11    2
    13    10    43    1
    14    11    14    1
    15    11    15    1
    16    12    13   ar
    17    12    27   ar
    18    12    43    1
    19    13    14    1
    20    13    30   ar
    21    14    17    2
    22    15    16    1
    23    16    17    1
    24    16    18    1
    25    16    22    1
    26    18    19    1
    27    19    20    1
    28    20    21    1
    29    21    22    1
    30    23    24    1
    31    23    88    1
    32    23    89    1
    33    24    25    1
    34    24    26    1
    35    24    90    1
    36    25    91    1
    37    25    92    1
    38    25    93    1
    39    26    94    1
    40    26    95    1
    41    26    96    1
    42    27    28   ar
    43    28    29   ar
    44    29    30   ar
    45    29    31    1
    46    30    33    1
    47    31    32    1
    48    32    33    1
    49    32    35    1
    50    34    97    1
    51    34    98    1
    52    34    99    1
    53    35    61    1
    54    36    37    1
    55    36    60    1
    56    37    38    1
    57    38    39    1
    58    39    40    1
    59    40    41    1
    60    41    42    1
    61    45   100    1
    62    47   101    1
    63    47   102    1
    64    47   103    1
    65    48   104    1
    66    49   105    1
    67    49   106    1
    68    49   107    1
    69    50   108    1
    70    51    59    1
    71    52   109    1
    72    52   110    1
    73    52   111    1
    74    53    54    1
    75    54    55    2
    76    54    56    1
    77    56   112    1
    78    56   113    1
    79    56   114    1
    80    57   115    1
    81    57   116    1
    82    57   117    1
    83    58   118    1
    84    58   119    1
    85    58   120    1
    86    59   121    1
    87    59   122    1
    88    59   123    1
    89    60    61    2
    90     1    47    1
    91     1    62    1
    92     2    63    1
    93     3    64    1
    94     4    65    1
    95     5     6    1
    96     7     8    2
    97     9    78    1
    98    15    79    1
    99    18    80    1
   100    18    81    1
   101    19    82    1
   102    19    83    1
   103    20    23    1
   104    21    84    1
   105    21    85    1
   106    22    86    1
   107    22    87    1
   108    27    45    1
   109    28    34    1
   110    32    58    1
   111    33    46    2
   112    36    51    1
   113    36    66    1
   114    37    52    1
   115    37    67    1
   116    38    53    1
   117    38    68    1
   118    42    48    1
   119    42    72    1
   120    43    44    2
   121    60    73    1
   122    61    74    1
   123    39    69    1
   124    39    57    1
   125    40    70    1
   126    40    50    1
   127    41    71    1
   128    41    49    1
