@<TRIPOS>MOLECULE
*****
 123 128 0 0 0
SMALL
GASTEIGER

@<TRIPOS>ATOM
     1 C         5.187513   1.699579   0.448025 C.3        1 UNL1     0.0009
     2 C         6.625597   2.489256   -0.415318 C.2        1 UNL1     -0.0787
     3 C         7.901537   2.376727   -1.090122 C.2        1 UNL1     -0.0649
     4 C         8.785249   3.601076   -1.855877 C.2        1 UNL1     -0.0542
     5 C         9.80111   3.881073   -2.802823 C.2        1 UNL1     0.0115
     6 C         10.916835   3.242201   -3.674788 C.3        1 UNL1     -0.0348
     7 C         9.906256   5.36153   -3.414526 C.2        1 UNL1     0.2441
     8 O         10.740767   6.176311   -3.045405 O.2        1 UNL1     -0.2702
     9 N         9.149466   5.572242   -4.580296 N.am        1 UNL1     -0.2772
     10 C         7.872876   5.972212   -4.258327 C.2        1 UNL1     0.1049
     11 C         7.019951   5.009877   -3.957244 C.2        1 UNL1     0.0801
     12 C         6.600427   7.595505   -2.843009 C.ar        1 UNL1     0.0753
     13 C         5.833861   6.476302   -2.386534 C.ar        1 UNL1     0.0305
     14 C         5.933465   5.167619   -3.028781 C.2        1 UNL1     0.0924
     15 N         7.128598   3.679311   -4.113179 N.pl3        1 UNL1     -0.3170
     16 C         5.855377   3.093358   -3.787879 C.3        1 UNL1     0.1275
     17 N         5.23543   4.057599   -2.806234 N.2        1 UNL1     -0.2557
     18 C         4.99386   3.156893   -5.045438 C.3        1 UNL1     0.0016
     19 C         5.733795   2.462195   -6.177463 C.3        1 UNL1     0.0026
     20 N         5.993491   1.082705   -5.789398 N.3        1 UNL1     -0.3018
     21 C         6.764369   0.918642   -4.555219 C.3        1 UNL1     0.0026
     22 C         6.000577   1.619976   -3.430653 C.3        1 UNL1     0.0016
     23 C         6.42191   0.255619   -6.899817 C.3        1 UNL1     0.0012
     24 C         5.255791   0.010761   -7.870367 C.3        1 UNL1     -0.0339
     25 C         5.273014   1.014681   -9.0348 C.3        1 UNL1     -0.0615
     26 C         5.28531   -1.423715   -8.368552 C.3        1 UNL1     -0.0615
     27 C         6.411955   8.866715   -2.305773 C.ar        1 UNL1     0.1347
     28 C         5.462628   9.14836   -1.339593 C.ar        1 UNL1     0.0342
     29 C         4.753586   8.022107   -0.870574 C.ar        1 UNL1     0.1435
     30 C         4.956952   6.736523   -1.373701 C.ar        1 UNL1     0.0774
     31 O         3.720047   8.148253   -0.009824 O.3        1 UNL1     -0.4436
     32 C         2.985509   6.922036   -0.142929 C.3        1 UNL1     0.3143
     33 C         3.985254   5.917619   -0.679464 C.2        1 UNL1     0.2504
     34 C         5.032217   10.520018   -0.89982 C.3        1 UNL1     -0.0327
     35 O         2.630387   6.492759   1.177246 O.2        1 UNL1     -0.4528
     36 C         -0.633942   4.590779   0.81021 C.3        1 UNL1     0.0854
     37 C         -0.957969   3.330529   -0.081025 C.3        1 UNL1     0.0236
     38 C         -1.564815   2.077694   0.715143 C.3        1 UNL1     0.1131
     39 C         -0.834635   1.543665   2.012803 C.3        1 UNL1     0.0200
     40 C         0.825337   1.382222   2.042225 C.3        1 UNL1     0.0661
     41 C         1.768624   0.600688   0.868758 C.3        1 UNL1     0.0091
     42 C         3.475421   0.945068   0.291133 C.3        1 UNL1     0.0661
     43 C         7.540141   7.375302   -3.970265 C.2        1 UNL1     0.2131
     44 O         7.943346   8.267331   -4.694452 O.2        1 UNL1     -0.2851
     45 O         7.230749   9.892564   -2.773372 O.3        1 UNL1     -0.5056
     46 O         3.990619   4.714382   -0.54513 O.2        1 UNL1     -0.2836
     47 C         5.590309   1.270594   1.884587 C.3        1 UNL1     -0.0566
     48 O         3.91097   -0.470049   0.373939 O.3        1 UNL1     -0.3909
     49 C         0.923122   0.372455   -0.364339 C.3        1 UNL1     -0.0577
     50 O         1.440111   2.595405   2.426887 O.3        1 UNL1     -0.3910
     51 O         -0.749593   4.406469   2.20308 O.3        1 UNL1     -0.3753
     52 C         0.07637   3.156543   -1.240689 C.3        1 UNL1     -0.0564
     53 O         -2.184009   1.041888   -0.177063 O.3        1 UNL1     -0.4608
     54 C         -2.41644   -0.264888   0.16388 C.2        1 UNL1     0.3042
     55 O         -1.857173   -1.264685   -0.284968 O.2        1 UNL1     -0.2512
     56 C         -3.439499   -0.429826   1.251473 C.3        1 UNL1     0.0332
     57 C         -1.539872   2.223354   3.277254 C.3        1 UNL1     -0.0567
     58 C         1.904761   7.174247   -1.219917 C.3        1 UNL1     0.0210
     59 C         -1.084693   5.582934   2.93759 C.3        1 UNL1     0.0372
     60 C         0.699314   5.206315   0.567917 C.2        1 UNL1     -0.0208
     61 C         1.622782   5.635316   1.429258 C.2        1 UNL1     0.0882
     62 H         4.721748   2.688555   0.53577 H        1 UNL1     0.0365
     63 H         6.370292   3.545887   -0.31129 H        1 UNL1     0.0576
     64 H         8.348218   1.404848   -1.311561 H        1 UNL1     0.0615
     65 H         8.309574   4.522165   -1.508298 H        1 UNL1     0.0622
     66 H         -1.373636   5.343527   0.503179 H        1 UNL1     0.0645
     67 H         -1.824982   3.646403   -0.686889 H        1 UNL1     0.0362
     68 H         -2.505015   2.524742   1.072487 H        1 UNL1     0.0741
     69 H         -1.174429   0.536404   2.213733 H        1 UNL1     0.0359
     70 H         0.937245   0.723486   2.92461 H        1 UNL1     0.0600
     71 H         1.805519   -0.419567   1.298497 H        1 UNL1     0.0348
     72 H         3.381474   1.437205   1.270057 H        1 UNL1     0.0602
     73 H         0.811454   5.399311   -0.470074 H        1 UNL1     0.0628
     74 H         1.6111   5.428038   2.499836 H        1 UNL1     0.1022
     75 H         10.951797   2.137008   -3.518713 H        1 UNL1     0.0279
     76 H         10.796052   3.322851   -4.752738 H        1 UNL1     0.0279
     77 H         11.927179   3.538167   -3.356498 H        1 UNL1     0.0279
     78 H         9.075221   4.701363   -5.101962 H        1 UNL1     0.1553
     79 H         7.785143   3.243069   -4.734126 H        1 UNL1     0.1484
     80 H         4.029354   2.675846   -4.842739 H        1 UNL1     0.0317
     81 H         4.775254   4.194969   -5.317949 H        1 UNL1     0.0317
     82 H         6.667677   2.983743   -6.433911 H        1 UNL1     0.0428
     83 H         5.102641   2.520696   -7.064746 H        1 UNL1     0.0428
     84 H         6.876917   -0.124491   -4.243742 H        1 UNL1     0.0428
     85 H         7.797164   1.276401   -4.667733 H        1 UNL1     0.0428
     86 H         6.521251   1.367364   -2.525626 H        1 UNL1     0.0317
     87 H         5.017528   1.152193   -3.296903 H        1 UNL1     0.0317
     88 H         7.217051   0.789507   -7.436481 H        1 UNL1     0.0429
     89 H         6.850797   -0.691906   -6.549065 H        1 UNL1     0.0429
     90 H         4.308714   0.120331   -7.328839 H        1 UNL1     0.0308
     91 H         6.215638   0.965846   -9.588132 H        1 UNL1     0.0233
     92 H         4.444199   0.824817   -9.720822 H        1 UNL1     0.0233
     93 H         5.157144   2.050865   -8.694606 H        1 UNL1     0.0233
     94 H         4.580197   -1.550354   -9.197173 H        1 UNL1     0.0233
     95 H         6.285191   -1.671147   -8.735945 H        1 UNL1     0.0233
     96 H         5.016545   -2.127165   -7.575525 H        1 UNL1     0.0233
     97 H         4.243916   10.48012   -0.154019 H        1 UNL1     0.0280
     98 H         5.853856   11.083595   -0.438794 H        1 UNL1     0.0280
     99 H         4.657583   11.085517   -1.768702 H        1 UNL1     0.0280
     100 H         6.768582   10.646279   -3.095766 H        1 UNL1     0.2922
     101 H         4.727497   0.845393   2.396851 H        1 UNL1     0.0236
     102 H         6.051701   2.073714   2.458258 H        1 UNL1     0.0236
     103 H         6.339917   0.461729   1.880392 H        1 UNL1     0.0236
     104 H         4.336969   -0.5971   1.244199 H        1 UNL1     0.2098
     105 H         0.715543   1.271454   -0.939251 H        1 UNL1     0.0234
     106 H         1.279633   -0.421567   -1.020354 H        1 UNL1     0.0234
     107 H         0.0   -0.0   0.0 H        1 UNL1     0.0234
     108 H         1.24042   3.254214   1.734166 H        1 UNL1     0.2098
     109 H         1.102018   3.028143   -0.867498 H        1 UNL1     0.0234
     110 H         -0.172324   2.333558   -1.919356 H        1 UNL1     0.0234
     111 H         0.105702   4.039675   -1.892734 H        1 UNL1     0.0234
     112 H         -3.574581   -1.491931   1.477375 H        1 UNL1     0.0342
     113 H         -3.177979   0.130138   2.148073 H        1 UNL1     0.0342
     114 H         -4.398063   -0.039341   0.882908 H        1 UNL1     0.0342
     115 H         -2.606157   1.965366   3.337817 H        1 UNL1     0.0234
     116 H         -1.083791   1.961351   4.234016 H        1 UNL1     0.0234
     117 H         -1.590189   3.323995   3.214012 H        1 UNL1     0.0234
     118 H         1.011484   7.671063   -0.8025 H        1 UNL1     0.0309
     119 H         2.273518   7.756092   -2.070609 H        1 UNL1     0.0309
     120 H         1.504111   6.244807   -1.639114 H        1 UNL1     0.0309
     121 H         -0.280302   6.303277   2.791247 H        1 UNL1     0.0524
     122 H         -2.017214   6.049086   2.578224 H        1 UNL1     0.0524
     123 H         -1.191276   5.34939   3.993143 H        1 UNL1     0.0524
@<TRIPOS>BOND
     1     1     2    1
     2     1    42    1
     3     2     3    2
     4     3     4    1
     5     4     5    2
     6     5     7    1
     7     6    75    1
     8     6    76    1
     9     6    77    1
    10     7     9   am
    11     9    10    1
    12    10    11    2
    13    10    43    1
    14    11    14    1
    15    11    15    1
    16    12    13   ar
    17    12    27   ar
    18    12    43    1
    19    13    14    1
    20    13    30   ar
    21    14    17    2
    22    15    16    1
    23    16    17    1
    24    16    18    1
    25    16    22    1
    26    18    19    1
    27    19    20    1
    28    20    21    1
    29    21    22    1
    30    23    24    1
    31    23    88    1
    32    23    89    1
    33    24    25    1
    34    24    26    1
    35    24    90    1
    36    25    91    1
    37    25    92    1
    38    25    93    1
    39    26    94    1
    40    26    95    1
    41    26    96    1
    42    27    28   ar
    43    28    29   ar
    44    29    30   ar
    45    29    31    1
    46    30    33    1
    47    31    32    1
    48    32    33    1
    49    32    35    1
    50    34    97    1
    51    34    98    1
    52    34    99    1
    53    35    61    1
    54    36    37    1
    55    36    60    1
    56    37    38    1
    57    38    39    1
    58    39    40    1
    59    40    41    1
    60    41    42    1
    61    45   100    1
    62    47   101    1
    63    47   102    1
    64    47   103    1
    65    48   104    1
    66    49   105    1
    67    49   106    1
    68    49   107    1
    69    50   108    1
    70    51    59    1
    71    52   109    1
    72    52   110    1
    73    52   111    1
    74    53    54    1
    75    54    55    2
    76    54    56    1
    77    56   112    1
    78    56   113    1
    79    56   114    1
    80    57   115    1
    81    57   116    1
    82    57   117    1
    83    58   118    1
    84    58   119    1
    85    58   120    1
    86    59   121    1
    87    59   122    1
    88    59   123    1
    89    60    61    2
    90     1    47    1
    91     1    62    1
    92     2    63    1
    93     3    64    1
    94     4    65    1
    95     5     6    1
    96     7     8    2
    97     9    78    1
    98    15    79    1
    99    18    80    1
   100    18    81    1
   101    19    82    1
   102    19    83    1
   103    20    23    1
   104    21    84    1
   105    21    85    1
   106    22    86    1
   107    22    87    1
   108    27    45    1
   109    28    34    1
   110    32    58    1
   111    33    46    2
   112    36    51    1
   113    36    66    1
   114    37    52    1
   115    37    67    1
   116    38    53    1
   117    38    68    1
   118    42    48    1
   119    42    72    1
   120    43    44    2
   121    60    73    1
   122    61    74    1
   123    39    69    1
   124    39    57    1
   125    40    70    1
   126    40    50    1
   127    41    71    1
   128    41    49    1
