@<TRIPOS>MOLECULE
*****
 123 128 0 0 0
SMALL
GASTEIGER

@<TRIPOS>ATOM
     1 C         5.130931   1.836646   0.547309 C.3        1 UNL1     0.0009
     2 C         6.560704   2.672621   -0.285717 C.2        1 UNL1     -0.0787
     3 C         7.850002   2.600704   -0.940382 C.2        1 UNL1     -0.0649
     4 C         8.712232   3.855257   -1.681336 C.2        1 UNL1     -0.0542
     5 C         9.735268   4.171018   -2.609113 C.2        1 UNL1     0.0115
     6 C         10.881998   3.570342   -3.467904 C.3        1 UNL1     -0.0348
     7 C         9.809835   5.659074   -3.206706 C.2        1 UNL1     0.2441
     8 O         10.615696   6.492971   -2.817182 O.2        1 UNL1     -0.2702
     9 N         9.06655   5.859325   -4.382962 N.am        1 UNL1     -0.2772
     10 C         7.774467   6.221632   -4.078698 C.2        1 UNL1     0.1049
     11 C         6.943377   5.233883   -3.799658 C.2        1 UNL1     0.0801
     12 C         6.435408   7.797322   -2.671055 C.ar        1 UNL1     0.0753
     13 C         5.692402   6.653757   -2.236533 C.ar        1 UNL1     0.0305
     14 C         5.838097   5.353927   -2.887889 C.2        1 UNL1     0.0924
     15 N         7.090833   3.908174   -3.964818 N.pl3        1 UNL1     -0.3170
     16 C         5.828988   3.285022   -3.665347 C.3        1 UNL1     0.1275
     17 N         5.167124   4.223447   -2.686053 N.2        1 UNL1     -0.2557
     18 C         4.986535   3.336113   -4.936317 C.3        1 UNL1     0.0016
     19 C         5.7634   2.671696   -6.061759 C.3        1 UNL1     0.0026
     20 N         6.054355   1.296433   -5.680937 N.3        1 UNL1     -0.3018
     21 C         6.809339   1.142596   -4.435665 C.3        1 UNL1     0.0026
     22 C         6.008569   1.813064   -3.318018 C.3        1 UNL1     0.0016
     23 C         6.523127   0.491028   -6.79099 C.3        1 UNL1     0.0012
     24 C         5.381067   0.226736   -7.784773 C.3        1 UNL1     -0.0339
     25 C         5.450761   1.181047   -8.988306 C.3        1 UNL1     -0.0615
     26 C         5.397907   -1.227461   -8.22273 C.3        1 UNL1     -0.0615
     27 C         6.203615   9.058198   -2.126462 C.ar        1 UNL1     0.1347
     28 C         5.231429   9.30549   -1.173703 C.ar        1 UNL1     0.0342
     29 C         4.545908   8.156332   -0.725751 C.ar        1 UNL1     0.1435
     30 C         4.792428   6.881195   -1.236116 C.ar        1 UNL1     0.0774
     31 O         3.495506   8.246822   0.118923 O.3        1 UNL1     -0.4436
     32 C         2.796981   7.002309   -0.036396 C.3        1 UNL1     0.3143
     33 C         3.832341   6.030155   -0.56475 C.2        1 UNL1     0.2504
     34 C         4.756653   10.661052   -0.729697 C.3        1 UNL1     -0.0327
     35 O         2.432384   6.552021   1.274162 O.2        1 UNL1     -0.4528
     36 C         -0.772412   4.565328   0.837794 C.3        1 UNL1     0.0854
     37 C         -1.047427   3.304577   -0.069066 C.3        1 UNL1     0.0236
     38 C         -1.632645   2.028805   0.706608 C.3        1 UNL1     0.1131
     39 C         -0.909262   1.503494   2.011611 C.3        1 UNL1     0.0200
     40 C         0.753806   1.386963   2.066955 C.3        1 UNL1     0.0661
     41 C         1.736964   0.641632   0.902698 C.3        1 UNL1     0.0091
     42 C         3.442849   1.037295   0.356063 C.3        1 UNL1     0.0661
     43 C         7.398916   7.612593   -3.784512 C.2        1 UNL1     0.2131
     44 O         7.789284   8.521543   -4.494555 O.2        1 UNL1     -0.2851
     45 O         7.001552   10.109963   -2.572024 O.3        1 UNL1     -0.5056
     46 O         3.868389   4.82638   -0.440331 O.2        1 UNL1     -0.2836
     47 C         5.521977   1.406227   1.986685 C.3        1 UNL1     -0.0566
     48 O         3.915484   -0.366135   0.434271 O.3        1 UNL1     -0.3909
     49 C         0.918088   0.401294   -0.345971 C.3        1 UNL1     -0.0577
     50 O         1.328909   2.612993   2.471713 O.3        1 UNL1     -0.3910
     51 O         -0.905527   4.365779   2.227 O.3        1 UNL1     -0.3753
     52 C         0.009922   3.1689   -1.212987 C.3        1 UNL1     -0.0564
     53 O         -2.208791   0.984395   -0.20421 O.3        1 UNL1     -0.4608
     54 C         -2.423135   -0.328143   0.126292 C.2        1 UNL1     0.3042
     55 O         -1.831619   -1.314551   -0.310683 O.2        1 UNL1     -0.2512
     56 C         -3.471059   -0.518128   1.185761 C.3        1 UNL1     0.0332
     57 C         -1.653182   2.152693   3.269903 C.3        1 UNL1     -0.0567
     58 C         1.72733   7.234465   -1.128861 C.3        1 UNL1     0.0210
     59 C         -1.246047   5.534969   2.970576 C.3        1 UNL1     0.0372
     60 C         0.547284   5.218957   0.622547 C.2        1 UNL1     -0.0208
     61 C         1.444623   5.665348   1.502469 C.2        1 UNL1     0.0882
     62 H         4.636971   2.811798   0.635592 H        1 UNL1     0.0365
     63 H         6.274987   3.720975   -0.177136 H        1 UNL1     0.0576
     64 H         8.326585   1.643293   -1.162508 H        1 UNL1     0.0615
     65 H         8.206013   4.760008   -1.333989 H        1 UNL1     0.0622
     66 H         -1.52732   5.300355   0.524908 H        1 UNL1     0.0645
     67 H         -1.912818   3.602058   -0.686449 H        1 UNL1     0.0362
     68 H         -2.590366   2.447002   1.052156 H        1 UNL1     0.0741
     69 H         -1.22463   0.485654   2.198572 H        1 UNL1     0.0359
     70 H         0.869359   0.723824   2.945565 H        1 UNL1     0.0600
     71 H         1.794744   -0.380961   1.324508 H        1 UNL1     0.0348
     72 H         3.319657   1.518124   1.33736 H        1 UNL1     0.0602
     73 H         0.670906   5.423992   -0.411826 H        1 UNL1     0.0628
     74 H         1.421271   5.44848   2.570954 H        1 UNL1     0.1022
     75 H         10.926244   2.461588   -3.342439 H        1 UNL1     0.0279
     76 H         10.789548   3.680592   -4.546035 H        1 UNL1     0.0279
     77 H         11.879627   3.86859   -3.113666 H        1 UNL1     0.0279
     78 H         9.024573   4.991343   -4.912982 H        1 UNL1     0.1553
     79 H         7.769016   3.495376   -4.578494 H        1 UNL1     0.1484
     80 H         4.03237   2.827284   -4.753485 H        1 UNL1     0.0317
     81 H         4.744101   4.370207   -5.203762 H        1 UNL1     0.0317
     82 H         6.68672   3.220646   -6.298498 H        1 UNL1     0.0428
     83 H         5.145334   2.720778   -6.958774 H        1 UNL1     0.0428
     84 H         6.945274   0.100224   -4.131044 H        1 UNL1     0.0428
     85 H         7.833665   1.529255   -4.528229 H        1 UNL1     0.0428
     86 H         6.521223   1.566793   -2.406687 H        1 UNL1     0.0317
     87 H         5.036624   1.317592   -3.204317 H        1 UNL1     0.0317
     88 H         7.314175   1.049652   -7.308173 H        1 UNL1     0.0429
     89 H         6.969192   -0.448921   -6.441282 H        1 UNL1     0.0429
     90 H         4.421004   0.375352   -7.276437 H        1 UNL1     0.0308
     91 H         6.41203   1.100503   -9.504615 H        1 UNL1     0.0233
     92 H         4.645073   0.970403   -9.695487 H        1 UNL1     0.0233
     93 H         5.333885   2.231535   -8.695644 H        1 UNL1     0.0233
     94 H         4.715888   -1.375582   -9.066973 H        1 UNL1     0.0233
     95 H         6.403481   -1.507949   -8.548477 H        1 UNL1     0.0233
     96 H         5.091699   -1.892451   -7.41033 H        1 UNL1     0.0233
     97 H         3.951528   10.593295   -0.004153 H        1 UNL1     0.0280
     98 H         5.552587   11.239123   -0.242277 H        1 UNL1     0.0280
     99 H         4.389596   11.227276   -1.601336 H        1 UNL1     0.0280
     100 H         6.524236   10.858635   -2.883923 H        1 UNL1     0.2922
     101 H         4.659102   0.966027   2.486012 H        1 UNL1     0.0236
     102 H         5.964504   2.212995   2.570018 H        1 UNL1     0.0236
     103 H         6.283219   0.608291   1.987919 H        1 UNL1     0.0236
     104 H         4.324011   -0.491242   1.313148 H        1 UNL1     0.2098
     105 H         0.694734   1.299407   -0.916338 H        1 UNL1     0.0234
     106 H         1.307141   -0.376466   -1.002975 H        1 UNL1     0.0234
     107 H         0.0   -0.0   0.0 H        1 UNL1     0.0234
     108 H         1.140141   3.267128   1.77154 H        1 UNL1     0.2098
     109 H         1.034408   3.08378   -0.824537 H        1 UNL1     0.0234
     110 H         -0.195108   2.334079   -1.891795 H        1 UNL1     0.0234
     111 H         0.012719   4.050206   -1.86815 H        1 UNL1     0.0234
     112 H         -3.577782   -1.582298   1.417059 H        1 UNL1     0.0342
     113 H         -3.253832   0.057168   2.084477 H        1 UNL1     0.0342
     114 H         -4.430897   -0.162321   0.786667 H        1 UNL1     0.0342
     115 H         -2.721207   1.895599   3.290241 H        1 UNL1     0.0234
     116 H         -1.227949   1.8657   4.233677 H        1 UNL1     0.0234
     117 H         -1.699939   3.254685   3.232881 H        1 UNL1     0.0234
     118 H         0.812976   7.700315   -0.721495 H        1 UNL1     0.0309
     119 H         2.092872   7.8361   -1.967084 H        1 UNL1     0.0309
     120 H         1.361283   6.298307   -1.564434 H        1 UNL1     0.0309
     121 H         -0.419368   6.238487   2.875592 H        1 UNL1     0.0524
     122 H         -2.150325   6.030632   2.579888 H        1 UNL1     0.0524
     123 H         -1.405562   5.282872   4.015131 H        1 UNL1     0.0524
@<TRIPOS>BOND
     1     1     2    1
     2     1    42    1
     3     2     3    2
     4     3     4    1
     5     4     5    2
     6     5     7    1
     7     6    75    1
     8     6    76    1
     9     6    77    1
    10     7     9   am
    11     9    10    1
    12    10    11    2
    13    10    43    1
    14    11    14    1
    15    11    15    1
    16    12    13   ar
    17    12    27   ar
    18    12    43    1
    19    13    14    1
    20    13    30   ar
    21    14    17    2
    22    15    16    1
    23    16    17    1
    24    16    18    1
    25    16    22    1
    26    18    19    1
    27    19    20    1
    28    20    21    1
    29    21    22    1
    30    23    24    1
    31    23    88    1
    32    23    89    1
    33    24    25    1
    34    24    26    1
    35    24    90    1
    36    25    91    1
    37    25    92    1
    38    25    93    1
    39    26    94    1
    40    26    95    1
    41    26    96    1
    42    27    28   ar
    43    28    29   ar
    44    29    30   ar
    45    29    31    1
    46    30    33    1
    47    31    32    1
    48    32    33    1
    49    32    35    1
    50    34    97    1
    51    34    98    1
    52    34    99    1
    53    35    61    1
    54    36    37    1
    55    36    60    1
    56    37    38    1
    57    38    39    1
    58    39    40    1
    59    40    41    1
    60    41    42    1
    61    45   100    1
    62    47   101    1
    63    47   102    1
    64    47   103    1
    65    48   104    1
    66    49   105    1
    67    49   106    1
    68    49   107    1
    69    50   108    1
    70    51    59    1
    71    52   109    1
    72    52   110    1
    73    52   111    1
    74    53    54    1
    75    54    55    2
    76    54    56    1
    77    56   112    1
    78    56   113    1
    79    56   114    1
    80    57   115    1
    81    57   116    1
    82    57   117    1
    83    58   118    1
    84    58   119    1
    85    58   120    1
    86    59   121    1
    87    59   122    1
    88    59   123    1
    89    60    61    2
    90     1    47    1
    91     1    62    1
    92     2    63    1
    93     3    64    1
    94     4    65    1
    95     5     6    1
    96     7     8    2
    97     9    78    1
    98    15    79    1
    99    18    80    1
   100    18    81    1
   101    19    82    1
   102    19    83    1
   103    20    23    1
   104    21    84    1
   105    21    85    1
   106    22    86    1
   107    22    87    1
   108    27    45    1
   109    28    34    1
   110    32    58    1
   111    33    46    2
   112    36    51    1
   113    36    66    1
   114    37    52    1
   115    37    67    1
   116    38    53    1
   117    38    68    1
   118    42    48    1
   119    42    72    1
   120    43    44    2
   121    60    73    1
   122    61    74    1
   123    39    69    1
   124    39    57    1
   125    40    70    1
   126    40    50    1
   127    41    71    1
   128    41    49    1
