@<TRIPOS>MOLECULE
*****
 123 128 0 0 0
SMALL
GASTEIGER

@<TRIPOS>ATOM
     1 C         -5.14308   1.81702   0.261165 C.3        1 UNL1     0.0009
     2 C         -6.632808   2.370036   -0.69378 C.2        1 UNL1     -0.0787
     3 C         -7.450953   3.431664   -1.241165 C.2        1 UNL1     -0.0649
     4 C         -8.804991   3.288438   -2.247359 C.2        1 UNL1     -0.0542
     5 C         -9.638989   3.960919   -3.17434 C.2        1 UNL1     0.0115
     6 C         -9.976631   5.349424   -3.783745 C.3        1 UNL1     -0.0348
     7 C         -10.580148   3.094046   -4.143742 C.2        1 UNL1     0.2441
     8 O         -11.779812   2.950208   -3.952322 O.2        1 UNL1     -0.2702
     9 N         -9.989277   2.728416   -5.365764 N.am        1 UNL1     -0.2772
     10 C         -9.308365   1.540075   -5.233379 C.2        1 UNL1     0.1049
     11 C         -8.085402   1.621679   -4.741522 C.2        1 UNL1     0.0801
     12 C         -9.542893   -0.794459   -4.366037 C.ar        1 UNL1     0.0753
     13 C         -8.306033   -0.579629   -3.678552 C.ar        1 UNL1     0.0305
     14 C         -7.472429   0.589206   -3.950548 C.2        1 UNL1     0.0924
     15 N         -7.305956   2.697704   -4.538636 N.pl3        1 UNL1     -0.3170
     16 C         -6.003533   2.229056   -4.145806 C.3        1 UNL1     0.1275
     17 N         -6.264314   0.896534   -3.48694 N.2        1 UNL1     -0.2557
     18 C         -5.22794   1.924919   -5.423952 C.3        1 UNL1     0.0016
     19 C         -5.210609   3.173663   -6.29109 C.3        1 UNL1     0.0026
     20 N         -4.58387   4.254323   -5.542491 N.3        1 UNL1     -0.3018
     21 C         -5.223643   4.57891   -4.265893 C.3        1 UNL1     0.0026
     22 C         -5.226024   3.311745   -3.409048 C.3        1 UNL1     0.0016
     23 C         -4.247544   5.394067   -6.372256 C.3        1 UNL1     0.0012
     24 C         -4.752823   5.182733   -7.808149 C.3        1 UNL1     -0.0339
     25 C         -4.671307   3.703911   -8.221064 C.3        1 UNL1     -0.0615
     26 C         -6.164418   5.725352   -7.948659 C.3        1 UNL1     -0.0615
     27 C         -10.271712   -1.96841   -4.190594 C.ar        1 UNL1     0.1347
     28 C         -9.846686   -3.011823   -3.387666 C.ar        1 UNL1     0.0342
     29 C         -8.650859   -2.757813   -2.682938 C.ar        1 UNL1     0.1435
     30 C         -7.928595   -1.571846   -2.820904 C.ar        1 UNL1     0.0774
     31 O         -8.049789   -3.71726   -1.945928 O.3        1 UNL1     -0.4436
     32 C         -6.695506   -3.264964   -1.796871 C.3        1 UNL1     0.3143
     33 C         -6.755205   -1.763756   -1.99441 C.2        1 UNL1     0.2504
     34 C         -10.442152   -4.391609   -3.346288 C.3        1 UNL1     -0.0327
     35 O         -6.318354   -3.491637   -0.433189 O.2        1 UNL1     -0.4528
     36 C         -2.575045   -4.119014   -0.479276 C.3        1 UNL1     0.0854
     37 C         -1.417371   -3.199281   -1.028278 C.3        1 UNL1     0.0236
     38 C         -0.260507   -2.86439   0.030617 C.3        1 UNL1     0.1131
     39 C         -0.642841   -2.311389   1.462497 C.3        1 UNL1     0.0200
     40 C         -1.811726   -1.133029   1.628667 C.3        1 UNL1     0.0661
     41 C         -1.889451   0.319537   0.755957 C.3        1 UNL1     0.0091
     42 C         -3.338197   1.302502   0.207947 C.3        1 UNL1     0.0661
     43 C         -9.979255   0.235955   -5.340766 C.2        1 UNL1     0.2131
     44 O         -10.761135   0.015998   -6.24797 O.2        1 UNL1     -0.2851
     45 O         -11.487918   -2.079012   -4.861449 O.3        1 UNL1     -0.5056
     46 O         -6.01403   -0.915314   -1.550946 O.2        1 UNL1     -0.2836
     47 C         -5.359437   2.050197   1.780639 C.3        1 UNL1     -0.0566
     48 O         -2.784799   2.59414   0.681801 O.3        1 UNL1     -0.3909
     49 C         -0.944347   0.232511   -0.421625 C.3        1 UNL1     -0.0577
     50 O         -3.097922   -1.712123   1.718525 O.3        1 UNL1     -0.3910
     51 O         -2.54504   -4.387264   0.904405 O.3        1 UNL1     -0.3753
     52 C         -1.951184   -2.134043   -2.04083 C.3        1 UNL1     -0.0564
     53 O         0.980493   -2.297797   -0.594857 O.3        1 UNL1     -0.4608
     54 C         1.031913   -1.614284   -1.78149 C.2        1 UNL1     0.3042
     55 O         0.92142   -2.077873   -2.915824 O.2        1 UNL1     -0.2512
     56 C         1.186873   -0.129476   -1.614027 C.3        1 UNL1     0.0332
     57 C         -0.693799   -3.558079   2.463169 C.3        1 UNL1     -0.0567
     58 C         -5.894726   -3.890111   -2.962835 C.3        1 UNL1     0.0210
     59 C         -3.764008   -4.897474   1.442614 C.3        1 UNL1     0.0372
     60 C         -3.952477   -3.652862   -0.796365 C.2        1 UNL1     -0.0208
     61 C         -5.037561   -3.57438   -0.024887 C.2        1 UNL1     0.0882
     62 H         -5.424914   0.776239   0.061028 H        1 UNL1     0.0365
     63 H         -7.120237   1.411494   -0.883727 H        1 UNL1     0.0576
     64 H         -7.148575   4.47921   -1.175426 H        1 UNL1     0.0615
     65 H         -9.068912   2.22953   -2.179968 H        1 UNL1     0.0622
     66 H         -2.448482   -5.070869   -1.014067 H        1 UNL1     0.0645
     67 H         -0.879315   -3.84433   -1.744495 H        1 UNL1     0.0362
     68 H         0.129293   -3.879003   0.204218 H        1 UNL1     0.0741
     69 H         0.229371   -1.843419   1.899142 H        1 UNL1     0.0359
     70 H         -1.590806   -0.788999   2.657209 H        1 UNL1     0.0600
     71 H         -1.325378   0.985349   1.438214 H        1 UNL1     0.0348
     72 H         -3.701217   0.652897   1.017606 H        1 UNL1     0.0602
     73 H         -4.029902   -3.476804   -1.840519 H        1 UNL1     0.0628
     74 H         -5.031888   -3.683095   1.060187 H        1 UNL1     0.1022
     75 H         -9.047793   5.858849   -4.136987 H        1 UNL1     0.0279
     76 H         -10.597764   5.349276   -4.676641 H        1 UNL1     0.0279
     77 H         -10.344481   6.064924   -3.03378 H        1 UNL1     0.0279
     78 H         -9.315399   3.438056   -5.645723 H        1 UNL1     0.1553
     79 H         -7.452894   3.584104   -4.985444 H        1 UNL1     0.1484
     80 H         -4.212273   1.607285   -5.158818 H        1 UNL1     0.0317
     81 H         -5.684315   1.092208   -5.969814 H        1 UNL1     0.0317
     82 H         -6.221791   3.454756   -6.620346 H        1 UNL1     0.0428
     83 H         -4.65425   2.934127   -7.197808 H        1 UNL1     0.0428
     84 H         -4.687981   5.337911   -3.687278 H        1 UNL1     0.0428
     85 H         -6.224691   5.009044   -4.408036 H        1 UNL1     0.0428
     86 H         -5.577304   3.617464   -2.440995 H        1 UNL1     0.0317
     87 H         -4.195936   2.988763   -3.214888 H        1 UNL1     0.0317
     88 H         -4.743876   6.279444   -5.95386 H        1 UNL1     0.0429
     89 H         -3.168266   5.593362   -6.357568 H        1 UNL1     0.0429
     90 H         -4.135509   5.77202   -8.496535 H        1 UNL1     0.0308
     91 H         -5.665042   3.248391   -8.266832 H        1 UNL1     0.0233
     92 H         -4.184323   3.600668   -9.193585 H        1 UNL1     0.0233
     93 H         -4.079333   3.105922   -7.517635 H        1 UNL1     0.0233
     94 H         -6.605395   5.390622   -8.893821 H        1 UNL1     0.0233
     95 H         -6.79093   5.352398   -7.133582 H        1 UNL1     0.0233
     96 H         -6.175293   6.818748   -7.930326 H        1 UNL1     0.0233
     97 H         -9.729313   -5.132723   -2.99723 H        1 UNL1     0.0280
     98 H         -11.298379   -4.452462   -2.66187 H        1 UNL1     0.0280
     99 H         -10.774267   -4.680682   -4.356848 H        1 UNL1     0.0280
     100 H         -11.803455   -2.960418   -4.957277 H        1 UNL1     0.2922
     101 H         -4.514796   2.602662   2.19176 H        1 UNL1     0.0236
     102 H         -5.554154   1.130878   2.331929 H        1 UNL1     0.0236
     103 H         -6.235823   2.688962   1.980936 H        1 UNL1     0.0236
     104 H         -1.810529   2.530644   0.640126 H        1 UNL1     0.2098
     105 H         -1.190014   -0.547431   -1.13797 H        1 UNL1     0.0234
     106 H         -0.770266   1.177201   -0.936585 H        1 UNL1     0.0234
     107 H         0.0   0.0   0.0 H        1 UNL1     0.0234
     108 H         -3.717954   -1.003032   1.976434 H        1 UNL1     0.2098
     109 H         -1.194017   -1.852097   -2.785758 H        1 UNL1     0.0234
     110 H         -2.868486   -2.446983   -2.551092 H        1 UNL1     0.0234
     111 H         -2.232884   -1.200697   -1.535402 H        1 UNL1     0.0234
     112 H         0.247628   0.304971   -1.25847 H        1 UNL1     0.0342
     113 H         2.011026   0.123839   -0.94886 H        1 UNL1     0.0342
     114 H         1.407821   0.305614   -2.598427 H        1 UNL1     0.0342
     115 H         -1.090144   -3.275257   3.448111 H        1 UNL1     0.0234
     116 H         -1.289984   -4.396575   2.097741 H        1 UNL1     0.0234
     117 H         0.30344   -3.943167   2.737327 H        1 UNL1     0.0234
     118 H         -6.523242   -4.541266   -3.595267 H        1 UNL1     0.0309
     119 H         -5.402703   -3.143964   -3.5948 H        1 UNL1     0.0309
     120 H         -5.103035   -4.563091   -2.615804 H        1 UNL1     0.0309
     121 H         -4.284379   -5.42146   0.641359 H        1 UNL1     0.0524
     122 H         -3.591406   -5.622025   2.2558 H        1 UNL1     0.0524
     123 H         -4.377973   -4.084316   1.819329 H        1 UNL1     0.0524
@<TRIPOS>BOND
     1     1     2    1
     2     1    42    1
     3     2     3    2
     4     3     4    1
     5     4     5    2
     6     5     7    1
     7     6    75    1
     8     6    76    1
     9     6    77    1
    10     7     9   am
    11     9    10    1
    12    10    11    2
    13    10    43    1
    14    11    14    1
    15    11    15    1
    16    12    13   ar
    17    12    27   ar
    18    12    43    1
    19    13    14    1
    20    13    30   ar
    21    14    17    2
    22    15    16    1
    23    16    17    1
    24    16    18    1
    25    16    22    1
    26    18    19    1
    27    19    20    1
    28    20    21    1
    29    21    22    1
    30    23    24    1
    31    23    88    1
    32    23    89    1
    33    24    25    1
    34    24    26    1
    35    24    90    1
    36    25    91    1
    37    25    92    1
    38    25    93    1
    39    26    94    1
    40    26    95    1
    41    26    96    1
    42    27    28   ar
    43    28    29   ar
    44    29    30   ar
    45    29    31    1
    46    30    33    1
    47    31    32    1
    48    32    33    1
    49    32    35    1
    50    34    97    1
    51    34    98    1
    52    34    99    1
    53    35    61    1
    54    36    37    1
    55    36    60    1
    56    37    38    1
    57    38    39    1
    58    39    40    1
    59    40    41    1
    60    41    42    1
    61    45   100    1
    62    47   101    1
    63    47   102    1
    64    47   103    1
    65    48   104    1
    66    49   105    1
    67    49   106    1
    68    49   107    1
    69    50   108    1
    70    51    59    1
    71    52   109    1
    72    52   110    1
    73    52   111    1
    74    53    54    1
    75    54    55    2
    76    54    56    1
    77    56   112    1
    78    56   113    1
    79    56   114    1
    80    57   115    1
    81    57   116    1
    82    57   117    1
    83    58   118    1
    84    58   119    1
    85    58   120    1
    86    59   121    1
    87    59   122    1
    88    59   123    1
    89    60    61    2
    90     1    47    1
    91     1    62    1
    92     2    63    1
    93     3    64    1
    94     4    65    1
    95     5     6    1
    96     7     8    2
    97     9    78    1
    98    15    79    1
    99    18    80    1
   100    18    81    1
   101    19    82    1
   102    19    83    1
   103    20    23    1
   104    21    84    1
   105    21    85    1
   106    22    86    1
   107    22    87    1
   108    27    45    1
   109    28    34    1
   110    32    58    1
   111    33    46    2
   112    36    51    1
   113    36    66    1
   114    37    52    1
   115    37    67    1
   116    38    53    1
   117    38    68    1
   118    42    48    1
   119    42    72    1
   120    43    44    2
   121    60    73    1
   122    61    74    1
   123    39    69    1
   124    39    57    1
   125    40    70    1
   126    40    50    1
   127    41    71    1
   128    41    49    1
