@<TRIPOS>MOLECULE
*****
 123 128 0 0 0
SMALL
GASTEIGER

@<TRIPOS>ATOM
     1 C         -0.703296   3.002431   -2.743891 C.3        1 UNL1     0.0009
     2 C         -2.309228   3.848272   -3.12148 C.2        1 UNL1     -0.0787
     3 C         -3.512469   3.960926   -3.918704 C.2        1 UNL1     -0.0649
     4 C         -4.828421   4.998029   -3.675712 C.2        1 UNL1     -0.0542
     5 C         -6.195732   5.226821   -3.967591 C.2        1 UNL1     0.0115
     6 C         -7.387624   4.761152   -4.848425 C.3        1 UNL1     -0.0348
     7 C         -7.026916   6.245287   -3.046262 C.2        1 UNL1     0.2441
     8 O         -7.293294   7.388452   -3.390854 O.2        1 UNL1     -0.2702
     9 N         -7.651344   5.656737   -1.932776 N.am        1 UNL1     -0.2772
     10 C         -6.794782   5.638012   -0.85608 C.2        1 UNL1     0.1049
     11 C         -5.930903   4.639815   -0.816873 C.2        1 UNL1     0.0801
     12 C         -5.242507   7.084273   0.4691 C.ar        1 UNL1     0.0753
     13 C         -4.264916   6.052113   0.303055 C.ar        1 UNL1     0.0305
     14 C         -4.62083   4.740201   -0.232913 C.2        1 UNL1     0.0924
     15 N         -5.88002   3.512291   -1.546688 N.pl3        1 UNL1     -0.3170
     16 C         -4.846365   2.677608   -0.994317 C.3        1 UNL1     0.1275
     17 N         -3.876252   3.645784   -0.362464 N.2        1 UNL1     -0.2557
     18 C         -5.467444   1.889677   0.155087 C.3        1 UNL1     0.0016
     19 C         -6.67357   1.129084   -0.3725 C.3        1 UNL1     0.0026
     20 N         -6.235929   0.240812   -1.440429 N.3        1 UNL1     -0.3018
     21 C         -5.569764   0.901434   -2.564783 C.3        1 UNL1     0.0026
     22 C         -4.358775   1.655462   -2.012659 C.3        1 UNL1     0.0016
     23 C         -7.239706   -0.738632   -1.806168 C.3        1 UNL1     0.0012
     24 C         -7.116688   -1.10645   -3.293223 C.3        1 UNL1     -0.0339
     25 C         -8.491392   -1.402938   -3.914786 C.3        1 UNL1     -0.0615
     26 C         -6.389768   -0.004255   -4.043912 C.3        1 UNL1     -0.0615
     27 C         -4.922089   8.288472   1.091478 C.ar        1 UNL1     0.1347
     28 C         -3.673244   8.559034   1.621791 C.ar        1 UNL1     0.0342
     29 C         -2.713539   7.547908   1.403268 C.ar        1 UNL1     0.1435
     30 C         -3.010484   6.351372   0.749551 C.ar        1 UNL1     0.0774
     31 O         -1.481868   7.61435   1.954248 O.3        1 UNL1     -0.4436
     32 C         -0.995776   6.26402   1.919648 C.3        1 UNL1     0.3143
     33 C         -1.781499   5.58835   0.814061 C.2        1 UNL1     0.2504
     34 C         -3.327708   9.715251   2.518377 C.3        1 UNL1     -0.0327
     35 O         0.370325   6.313933   1.490082 O.2        1 UNL1     -0.4528
     36 C         2.085277   3.350265   3.128283 C.3        1 UNL1     0.0854
     37 C         1.730455   1.816439   3.033402 C.3        1 UNL1     0.0236
     38 C         2.934242   0.872815   2.551514 C.3        1 UNL1     0.1131
     39 C         3.740646   1.236868   1.240237 C.3        1 UNL1     0.0200
     40 C         2.938322   1.74248   -0.132013 C.3        1 UNL1     0.0661
     41 C         1.608132   0.969703   -0.846869 C.3        1 UNL1     0.0091
     42 C         0.182619   1.664415   -1.769197 C.3        1 UNL1     0.0661
     43 C         -6.632356   6.795131   0.036694 C.2        1 UNL1     0.2131
     44 O         -7.606408   7.391665   0.458723 O.2        1 UNL1     -0.2851
     45 O         -5.919261   9.258312   1.172086 O.3        1 UNL1     -0.5056
     46 O         -1.456845   4.64636   0.126233 O.2        1 UNL1     -0.2836
     47 C         0.369543   3.386801   -3.798053 C.3        1 UNL1     -0.0566
     48 O         0.280138   0.688048   -2.881094 O.3        1 UNL1     -0.3909
     49 C         1.051393   -0.044408   0.127357 C.3        1 UNL1     -0.0577
     50 O         2.72712   3.139717   -0.102903 O.3        1 UNL1     -0.3910
     51 O         3.3451   3.723877   2.617704 O.3        1 UNL1     -0.3753
     52 C         0.25641   1.588176   2.564322 C.3        1 UNL1     -0.0564
     53 O         2.690705   -0.586654   2.802446 O.3        1 UNL1     -0.4608
     54 C         2.395408   -1.519895   1.843388 C.2        1 UNL1     0.3042
     55 O         2.997388   -2.567277   1.610043 O.2        1 UNL1     -0.2512
     56 C         1.155777   -1.202161   1.056576 C.3        1 UNL1     0.0332
     57 C         5.042543   2.052345   1.685473 C.3        1 UNL1     -0.0567
     58 C         -1.386191   5.623798   3.272135 C.3        1 UNL1     0.0210
     59 C         3.619366   5.123357   2.663519 C.3        1 UNL1     0.0372
     60 C         1.084952   4.266199   2.515441 C.2        1 UNL1     -0.0208
     61 C         1.254098   5.32425   1.721299 C.2        1 UNL1     0.0882
     62 H         -0.566219   3.683395   -1.89524 H        1 UNL1     0.0365
     63 H         -2.279089   4.671647   -2.404811 H        1 UNL1     0.0576
     64 H         -3.754802   3.232197   -4.69545 H        1 UNL1     0.0615
     65 H         -4.45636   5.72528   -2.948966 H        1 UNL1     0.0622
     66 H         2.074917   3.569867   4.205183 H        1 UNL1     0.0645
     67 H         1.613305   1.502804   4.085291 H        1 UNL1     0.0362
     68 H         3.638615   1.034847   3.38165 H        1 UNL1     0.0741
     69 H         4.264066   0.354365   0.897271 H        1 UNL1     0.0359
     70 H         3.737727   1.599181   -0.883996 H        1 UNL1     0.0600
     71 H         2.131422   0.312525   -1.56884 H        1 UNL1     0.0348
     72 H         0.963564   2.438368   -1.790077 H        1 UNL1     0.0602
     73 H         0.122792   4.043791   2.905353 H        1 UNL1     0.0628
     74 H         2.194325   5.586125   1.23485 H        1 UNL1     0.1022
     75 H         -8.356241   5.101219   -4.408914 H        1 UNL1     0.0279
     76 H         -7.432927   5.166195   -5.856867 H        1 UNL1     0.0279
     77 H         -7.51886   3.669156   -4.843562 H        1 UNL1     0.0279
     78 H         -7.894748   4.691972   -2.147395 H        1 UNL1     0.1553
     79 H         -6.660996   3.144044   -2.057966 H        1 UNL1     0.1484
     80 H         -4.714424   1.208611   0.569667 H        1 UNL1     0.0317
     81 H         -5.768469   2.557331   0.969502 H        1 UNL1     0.0317
     82 H         -7.463076   1.810188   -0.722771 H        1 UNL1     0.0428
     83 H         -7.102206   0.575693   0.46361 H        1 UNL1     0.0428
     84 H         -5.180502   0.205437   -3.314366 H        1 UNL1     0.0428
     85 H         -6.260398   1.542884   -3.129481 H        1 UNL1     0.0428
     86 H         -3.823651   2.01318   -2.872699 H        1 UNL1     0.0317
     87 H         -3.656346   0.950165   -1.551957 H        1 UNL1     0.0317
     88 H         -7.068895   -1.64273   -1.207231 H        1 UNL1     0.0429
     89 H         -8.250187   -0.381759   -1.568803 H        1 UNL1     0.0429
     90 H         -6.488993   -2.000072   -3.391463 H        1 UNL1     0.0308
     91 H         -9.226998   -0.643198   -3.634106 H        1 UNL1     0.0233
     92 H         -8.421026   -1.448861   -5.004074 H        1 UNL1     0.0233
     93 H         -8.895093   -2.370695   -3.59337 H        1 UNL1     0.0233
     94 H         -6.629036   -0.053248   -5.111707 H        1 UNL1     0.0233
     95 H         -6.707614   0.973715   -3.671742 H        1 UNL1     0.0233
     96 H         -5.305722   -0.090631   -3.928367 H        1 UNL1     0.0233
     97 H         -2.526356   10.323055   2.108937 H        1 UNL1     0.0280
     98 H         -4.177277   10.395489   2.662472 H        1 UNL1     0.0280
     99 H         -3.005773   9.336075   3.502084 H        1 UNL1     0.0280
     100 H         -6.672133   9.004785   1.676596 H        1 UNL1     0.2922
     101 H         1.334585   3.518756   -3.309241 H        1 UNL1     0.0236
     102 H         0.091762   4.254373   -4.395667 H        1 UNL1     0.0236
     103 H         0.535712   2.581153   -4.532568 H        1 UNL1     0.0236
     104 H         0.276382   1.192686   -3.717932 H        1 UNL1     0.2098
     105 H         1.366384   -1.067756   -0.06066 H        1 UNL1     0.0234
     106 H         1.193825   0.20769   1.178112 H        1 UNL1     0.0234
     107 H         -0.0   0.0   0.0 H        1 UNL1     0.0234
     108 H         1.762086   3.28779   -0.126384 H        1 UNL1     0.2098
     109 H         -0.459981   1.658434   3.394719 H        1 UNL1     0.0234
     110 H         -0.04866   2.264977   1.758955 H        1 UNL1     0.0234
     111 H         0.118353   0.586194   2.13663 H        1 UNL1     0.0234
     112 H         1.127199   -1.80855   0.146179 H        1 UNL1     0.0342
     113 H         0.250337   -1.339167   1.645856 H        1 UNL1     0.0342
     114 H         1.201079   -0.146173   0.756572 H        1 UNL1     0.0342
     115 H         4.906883   2.536577   2.662359 H        1 UNL1     0.0234
     116 H         5.948421   1.445587   1.742725 H        1 UNL1     0.0234
     117 H         5.256543   2.924071   1.043415 H        1 UNL1     0.0234
     118 H         -1.441403   4.522895   3.209125 H        1 UNL1     0.0309
     119 H         -0.713503   5.902465   4.089471 H        1 UNL1     0.0309
     120 H         -2.392727   5.908963   3.59721 H        1 UNL1     0.0309
     121 H         4.654587   5.266711   2.355097 H        1 UNL1     0.0524
     122 H         2.983542   5.697248   1.968958 H        1 UNL1     0.0524
     123 H         3.472476   5.50236   3.670929 H        1 UNL1     0.0524
@<TRIPOS>BOND
     1     1     2    1
     2     1    42    1
     3     2     3    2
     4     3     4    1
     5     4     5    2
     6     5     7    1
     7     6    75    1
     8     6    76    1
     9     6    77    1
    10     7     9   am
    11     9    10    1
    12    10    11    2
    13    10    43    1
    14    11    14    1
    15    11    15    1
    16    12    13   ar
    17    12    27   ar
    18    12    43    1
    19    13    14    1
    20    13    30   ar
    21    14    17    2
    22    15    16    1
    23    16    17    1
    24    16    18    1
    25    16    22    1
    26    18    19    1
    27    19    20    1
    28    20    21    1
    29    21    22    1
    30    23    24    1
    31    23    88    1
    32    23    89    1
    33    24    25    1
    34    24    26    1
    35    24    90    1
    36    25    91    1
    37    25    92    1
    38    25    93    1
    39    26    94    1
    40    26    95    1
    41    26    96    1
    42    27    28   ar
    43    28    29   ar
    44    29    30   ar
    45    29    31    1
    46    30    33    1
    47    31    32    1
    48    32    33    1
    49    32    35    1
    50    34    97    1
    51    34    98    1
    52    34    99    1
    53    35    61    1
    54    36    37    1
    55    36    60    1
    56    37    38    1
    57    38    39    1
    58    39    40    1
    59    40    41    1
    60    41    42    1
    61    45   100    1
    62    47   101    1
    63    47   102    1
    64    47   103    1
    65    48   104    1
    66    49   105    1
    67    49   106    1
    68    49   107    1
    69    50   108    1
    70    51    59    1
    71    52   109    1
    72    52   110    1
    73    52   111    1
    74    53    54    1
    75    54    55    2
    76    54    56    1
    77    56   112    1
    78    56   113    1
    79    56   114    1
    80    57   115    1
    81    57   116    1
    82    57   117    1
    83    58   118    1
    84    58   119    1
    85    58   120    1
    86    59   121    1
    87    59   122    1
    88    59   123    1
    89    60    61    2
    90     1    47    1
    91     1    62    1
    92     2    63    1
    93     3    64    1
    94     4    65    1
    95     5     6    1
    96     7     8    2
    97     9    78    1
    98    15    79    1
    99    18    80    1
   100    18    81    1
   101    19    82    1
   102    19    83    1
   103    20    23    1
   104    21    84    1
   105    21    85    1
   106    22    86    1
   107    22    87    1
   108    27    45    1
   109    28    34    1
   110    32    58    1
   111    33    46    2
   112    36    51    1
   113    36    66    1
   114    37    52    1
   115    37    67    1
   116    38    53    1
   117    38    68    1
   118    42    48    1
   119    42    72    1
   120    43    44    2
   121    60    73    1
   122    61    74    1
   123    39    69    1
   124    39    57    1
   125    40    70    1
   126    40    50    1
   127    41    71    1
   128    41    49    1
