@<TRIPOS>MOLECULE
*****
 123 128 0 0 0
SMALL
GASTEIGER

@<TRIPOS>ATOM
     1 C         5.114952   1.905808   0.46574 C.3        1 UNL1     0.0009
     2 C         6.50432   2.793931   -0.381568 C.2        1 UNL1     -0.0787
     3 C         7.779551   2.767493   -1.066502 C.2        1 UNL1     -0.0649
     4 C         8.593608   4.057982   -1.800195 C.2        1 UNL1     -0.0542
     5 C         9.586974   4.417984   -2.743965 C.2        1 UNL1     0.0115
     6 C         10.727908   3.863689   -3.640819 C.3        1 UNL1     -0.0348
     7 C         9.611422   5.91934   -3.311699 C.2        1 UNL1     0.2441
     8 O         10.405469   6.76488   -2.923015 O.2        1 UNL1     -0.2702
     9 N         8.83655   6.12505   -4.466432 N.am        1 UNL1     -0.2772
     10 C         7.543373   6.448821   -4.12557 C.2        1 UNL1     0.1049
     11 C         6.743279   5.435214   -3.848671 C.2        1 UNL1     0.0801
     12 C         6.199089   7.961622   -2.655309 C.ar        1 UNL1     0.0753
     13 C         5.494415   6.791292   -2.22826 C.ar        1 UNL1     0.0305
     14 C         5.656716   5.509073   -2.909894 C.2        1 UNL1     0.0924
     15 N         6.919181   4.117234   -4.044923 N.pl3        1 UNL1     -0.3170
     16 C         5.680153   3.456907   -3.730233 C.3        1 UNL1     0.1275
     17 N         5.018351   4.358369   -2.71677 N.2        1 UNL1     -0.2557
     18 C         4.807623   3.513006   -4.980531 C.3        1 UNL1     0.0016
     19 C         5.574308   2.891256   -6.13691 C.3        1 UNL1     0.0026
     20 N         5.907427   1.516156   -5.791715 N.3        1 UNL1     -0.3018
     21 C         6.69445   1.355716   -4.567288 C.3        1 UNL1     0.0026
     22 C         5.903546   1.983077   -3.418034 C.3        1 UNL1     0.0016
     23 C         6.369986   0.745517   -6.928728 C.3        1 UNL1     0.0012
     24 C         5.212101   0.473279   -7.90184 C.3        1 UNL1     -0.0339
     25 C         5.529307   0.99439   -9.31318 C.3        1 UNL1     -0.0615
     26 C         4.880135   -1.008751   -7.914676 C.3        1 UNL1     -0.0615
     27 C         5.949227   9.204948   -2.079264 C.ar        1 UNL1     0.1347
     28 C         4.993525   9.408462   -1.099844 C.ar        1 UNL1     0.0342
     29 C         4.34675   8.233696   -0.660786 C.ar        1 UNL1     0.1435
     30 C         4.612467   6.975783   -1.20325 C.ar        1 UNL1     0.0774
     31 O         3.314209   8.280753   0.209071 O.3        1 UNL1     -0.4436
     32 C         2.642854   7.022691   0.043436 C.3        1 UNL1     0.3143
     33 C         3.689161   6.087586   -0.528431 C.2        1 UNL1     0.2504
     34 C         4.496188   10.742439   -0.616872 C.3        1 UNL1     -0.0327
     35 O         2.319664   6.53678   1.352134 O.2        1 UNL1     -0.4528
     36 C         -0.844928   4.480348   0.946502 C.3        1 UNL1     0.0854
     37 C         -1.109943   3.23195   0.019792 C.3        1 UNL1     0.0236
     38 C         -1.645827   1.926431   0.781496 C.3        1 UNL1     0.1131
     39 C         -0.879948   1.392702   2.058536 C.3        1 UNL1     0.0200
     40 C         0.786302   1.316453   2.073909 C.3        1 UNL1     0.0661
     41 C         1.760241   0.619755   0.872383 C.3        1 UNL1     0.0091
     42 C         3.44291   1.068805   0.295856 C.3        1 UNL1     0.0661
     43 C         7.140887   7.823708   -3.793841 C.2        1 UNL1     0.2131
     44 O         7.492491   8.756409   -4.493256 O.2        1 UNL1     -0.2851
     45 O         6.710786   10.285117   -2.520514 O.3        1 UNL1     -0.5056
     46 O         3.757421   4.882788   -0.430167 O.2        1 UNL1     -0.2836
     47 C         5.549465   1.455911   1.886575 C.3        1 UNL1     -0.0566
     48 O         3.951315   -0.323744   0.333893 O.3        1 UNL1     -0.3909
     49 C         0.918899   0.384706   -0.362278 C.3        1 UNL1     -0.0577
     50 O         1.340507   2.547874   2.49126 O.3        1 UNL1     -0.3910
     51 O         -0.941068   4.249194   2.333858 O.3        1 UNL1     -0.3753
     52 C         -0.076257   3.146019   -1.150275 C.3        1 UNL1     -0.0564
     53 O         -2.217173   0.886855   -0.137836 O.3        1 UNL1     -0.4608
     54 C         -2.360407   -0.443597   0.157649 C.2        1 UNL1     0.3042
     55 O         -1.651137   -1.373897   -0.223554 O.2        1 UNL1     -0.2512
     56 C         -3.493765   -0.731585   1.100664 C.3        1 UNL1     0.0332
     57 C         -1.610272   1.997345   3.346639 C.3        1 UNL1     -0.0567
     58 C         1.542953   7.250462   -1.019517 C.3        1 UNL1     0.0210
     59 C         -1.292772   5.39411   3.109317 C.3        1 UNL1     0.0372
     60 C         0.453118   5.170853   0.715331 C.2        1 UNL1     -0.0208
     61 C         1.359351   5.621338   1.583979 C.2        1 UNL1     0.0882
     62 H         4.599519   2.866367   0.5856 H        1 UNL1     0.0365
     63 H         6.195696   3.832418   -0.244577 H        1 UNL1     0.0576
     64 H         8.274098   1.826969   -1.319378 H        1 UNL1     0.0615
     65 H         8.073614   4.942577   -1.422595 H        1 UNL1     0.0622
     66 H         -1.624553   5.202618   0.666224 H        1 UNL1     0.0645
     67 H         -1.996339   3.52038   -0.571537 H        1 UNL1     0.0362
     68 H         -2.605242   2.313533   1.157257 H        1 UNL1     0.0741
     69 H         -1.165999   0.363726   2.231139 H        1 UNL1     0.0359
     70 H         0.938223   0.63857   2.935568 H        1 UNL1     0.0600
     71 H         1.852659   -0.409493   1.271211 H        1 UNL1     0.0348
     72 H         3.330685   1.526262   1.289564 H        1 UNL1     0.0602
     73 H         0.547819   5.400001   -0.317031 H        1 UNL1     0.0628
     74 H         1.36594   5.38216   2.647928 H        1 UNL1     0.1022
     75 H         10.769123   2.749469   -3.578783 H        1 UNL1     0.0279
     76 H         10.631005   4.035329   -4.710501 H        1 UNL1     0.0279
     77 H         11.728069   4.138342   -3.274835 H        1 UNL1     0.0279
     78 H         8.803548   5.267309   -5.013486 H        1 UNL1     0.1553
     79 H         7.592902   3.734059   -4.682269 H        1 UNL1     0.1484
     80 H         3.870623   2.976976   -4.78696 H        1 UNL1     0.0317
     81 H         4.533935   4.546003   -5.220663 H        1 UNL1     0.0317
     82 H         6.478259   3.467721   -6.382824 H        1 UNL1     0.0428
     83 H         4.93471   2.943281   -7.018532 H        1 UNL1     0.0428
     84 H         6.862759   0.311037   -4.287771 H        1 UNL1     0.0428
     85 H         7.706633   1.769537   -4.674782 H        1 UNL1     0.0428
     86 H         6.442932   1.731051   -2.523868 H        1 UNL1     0.0317
     87 H         4.946856   1.46137   -3.292881 H        1 UNL1     0.0317
     88 H         7.135036   1.334093   -7.451767 H        1 UNL1     0.0429
     89 H         6.84679   -0.190003   -6.608985 H        1 UNL1     0.0429
     90 H         4.310147   0.979108   -7.537384 H        1 UNL1     0.0308
     91 H         6.538607   0.709331   -9.624882 H        1 UNL1     0.0233
     92 H         4.808045   0.609851   -10.038108 H        1 UNL1     0.0233
     93 H         5.473593   2.087855   -9.376931 H        1 UNL1     0.0233
     94 H         4.273448   -1.252317   -8.793563 H        1 UNL1     0.0233
     95 H         5.800369   -1.597336   -7.966639 H        1 UNL1     0.0233
     96 H         4.324309   -1.300952   -7.01933 H        1 UNL1     0.0233
     97 H         3.660812   10.64165   0.069582 H        1 UNL1     0.0280
     98 H         5.268758   11.298995   -0.070395 H        1 UNL1     0.0280
     99 H         4.165314   11.346572   -1.477476 H        1 UNL1     0.0280
     100 H         6.211262   11.049894   -2.74682 H        1 UNL1     0.2922
     101 H         4.686026   1.07537   2.431844 H        1 UNL1     0.0236
     102 H         6.073002   2.233935   2.441166 H        1 UNL1     0.0236
     103 H         6.255796   0.609569   1.855063 H        1 UNL1     0.0236
     104 H         4.301748   -0.485381   1.23169 H        1 UNL1     0.2098
     105 H         0.700985   1.282724   -0.934895 H        1 UNL1     0.0234
     106 H         1.285765   -0.40306   -1.020124 H        1 UNL1     0.0234
     107 H         0.0   -0.0   0.0 H        1 UNL1     0.0234
     108 H         1.158907   3.200875   1.788139 H        1 UNL1     0.2098
     109 H         0.958685   3.078477   -0.786897 H        1 UNL1     0.0234
     110 H         -0.276459   2.320409   -1.841673 H        1 UNL1     0.0234
     111 H         -0.110065   4.040331   -1.786678 H        1 UNL1     0.0234
     112 H         -3.53962   -1.804481   1.310752 H        1 UNL1     0.0342
     113 H         -3.416367   -0.156034   2.021856 H        1 UNL1     0.0342
     114 H         -4.432356   -0.444703   0.606792 H        1 UNL1     0.0342
     115 H         -2.691547   1.802877   3.331976 H        1 UNL1     0.0234
     116 H         -1.221745   1.620751   4.294939 H        1 UNL1     0.0234
     117 H         -1.592599   3.100132   3.385243 H        1 UNL1     0.0234
     118 H         0.535297   7.295054   -0.570466 H        1 UNL1     0.0309
     119 H         1.70691   8.149873   -1.621498 H        1 UNL1     0.0309
     120 H         1.466394   6.419966   -1.729814 H        1 UNL1     0.0309
     121 H         -0.900316   5.244533   4.114783 H        1 UNL1     0.0524
     122 H         -0.845961   6.321137   2.71306 H        1 UNL1     0.0524
     123 H         -2.372524   5.508934   3.141631 H        1 UNL1     0.0524
@<TRIPOS>BOND
     1     1     2    1
     2     1    42    1
     3     2     3    2
     4     3     4    1
     5     4     5    2
     6     5     7    1
     7     6    75    1
     8     6    76    1
     9     6    77    1
    10     7     9   am
    11     9    10    1
    12    10    11    2
    13    10    43    1
    14    11    14    1
    15    11    15    1
    16    12    13   ar
    17    12    27   ar
    18    12    43    1
    19    13    14    1
    20    13    30   ar
    21    14    17    2
    22    15    16    1
    23    16    17    1
    24    16    18    1
    25    16    22    1
    26    18    19    1
    27    19    20    1
    28    20    21    1
    29    21    22    1
    30    23    24    1
    31    23    88    1
    32    23    89    1
    33    24    25    1
    34    24    26    1
    35    24    90    1
    36    25    91    1
    37    25    92    1
    38    25    93    1
    39    26    94    1
    40    26    95    1
    41    26    96    1
    42    27    28   ar
    43    28    29   ar
    44    29    30   ar
    45    29    31    1
    46    30    33    1
    47    31    32    1
    48    32    33    1
    49    32    35    1
    50    34    97    1
    51    34    98    1
    52    34    99    1
    53    35    61    1
    54    36    37    1
    55    36    60    1
    56    37    38    1
    57    38    39    1
    58    39    40    1
    59    40    41    1
    60    41    42    1
    61    45   100    1
    62    47   101    1
    63    47   102    1
    64    47   103    1
    65    48   104    1
    66    49   105    1
    67    49   106    1
    68    49   107    1
    69    50   108    1
    70    51    59    1
    71    52   109    1
    72    52   110    1
    73    52   111    1
    74    53    54    1
    75    54    55    2
    76    54    56    1
    77    56   112    1
    78    56   113    1
    79    56   114    1
    80    57   115    1
    81    57   116    1
    82    57   117    1
    83    58   118    1
    84    58   119    1
    85    58   120    1
    86    59   121    1
    87    59   122    1
    88    59   123    1
    89    60    61    2
    90     1    47    1
    91     1    62    1
    92     2    63    1
    93     3    64    1
    94     4    65    1
    95     5     6    1
    96     7     8    2
    97     9    78    1
    98    15    79    1
    99    18    80    1
   100    18    81    1
   101    19    82    1
   102    19    83    1
   103    20    23    1
   104    21    84    1
   105    21    85    1
   106    22    86    1
   107    22    87    1
   108    27    45    1
   109    28    34    1
   110    32    58    1
   111    33    46    2
   112    36    51    1
   113    36    66    1
   114    37    52    1
   115    37    67    1
   116    38    53    1
   117    38    68    1
   118    42    48    1
   119    42    72    1
   120    43    44    2
   121    60    73    1
   122    61    74    1
   123    39    69    1
   124    39    57    1
   125    40    70    1
   126    40    50    1
   127    41    71    1
   128    41    49    1
