@<TRIPOS>MOLECULE
*****
 123 128 0 0 0
SMALL
GASTEIGER

@<TRIPOS>ATOM
     1 C         4.946656   2.348998   -0.11132 C.3        1 UNL1     0.0009
     2 C         6.144051   3.363216   -1.09856 C.2        1 UNL1     -0.0787
     3 C         7.320515   3.453648   -1.937488 C.2        1 UNL1     -0.0649
     4 C         7.931957   4.819938   -2.72853 C.2        1 UNL1     -0.0542
     5 C         8.766773   5.277613   -3.77767 C.2        1 UNL1     0.0115
     6 C         9.824827   4.835245   -4.825598 C.3        1 UNL1     -0.0348
     7 C         8.601917   6.786737   -4.299548 C.2        1 UNL1     0.2441
     8 O         9.370312   7.686221   -3.988061 O.2        1 UNL1     -0.2702
     9 N         7.673499   6.951263   -5.342199 N.am        1 UNL1     -0.2772
     10 C         6.412544   7.162349   -4.833517 C.2        1 UNL1     0.1049
     11 C         5.735501   6.081975   -4.489093 C.2        1 UNL1     0.0801
     12 C         5.151124   8.53225   -3.16333 C.ar        1 UNL1     0.0753
     13 C         4.599673   7.300529   -2.686495 C.ar        1 UNL1     0.0305
     14 C         4.774023   6.049182   -3.420514 C.2        1 UNL1     0.0924
     15 N         5.987505   4.786675   -4.744471 N.pl3        1 UNL1     -0.3170
     16 C         4.853608   4.021996   -4.297483 C.3        1 UNL1     0.1275
     17 N         4.257014   4.846939   -3.183361 N.2        1 UNL1     -0.2557
     18 C         3.828205   4.031362   -5.427157 C.3        1 UNL1     0.0016
     19 C         4.488598   3.496441   -6.687843 C.3        1 UNL1     0.0026
     20 N         4.969035   2.146468   -6.427495 N.3        1 UNL1     -0.3018
     21 C         5.914754   2.026688   -5.315903 C.3        1 UNL1     0.0026
     22 C         5.229071   2.565374   -4.059101 C.3        1 UNL1     0.0016
     23 C         5.342756   1.438121   -7.635477 C.3        1 UNL1     0.0012
     24 C         4.09552   1.087916   -8.462227 C.3        1 UNL1     -0.0339
     25 C         3.828798   2.140309   -9.550981 C.3        1 UNL1     -0.0615
     26 C         4.23628   -0.304218   -9.052929 C.3        1 UNL1     -0.0615
     27 C         4.879863   9.739784   -2.52427 C.ar        1 UNL1     0.1347
     28 C         4.042812   9.846024   -1.427862 C.ar        1 UNL1     0.0342
     29 C         3.550481   8.614347   -0.94646 C.ar        1 UNL1     0.1435
     30 C         3.84281   7.392912   -1.554621 C.ar        1 UNL1     0.0774
     31 O         2.635797   8.560567   0.046247 O.3        1 UNL1     -0.4436
     32 C         2.049155   7.255627   -0.071462 C.3        1 UNL1     0.3143
     33 C         3.08448   6.41979   -0.796508 C.2        1 UNL1     0.2504
     34 C         3.507974   11.125616   -0.847612 C.3        1 UNL1     -0.0327
     35 O         1.933068   6.719782   1.252413 O.2        1 UNL1     -0.4528
     36 C         -1.087145   4.421591   1.183733 C.3        1 UNL1     0.0854
     37 C         -1.369011   3.174027   0.260879 C.3        1 UNL1     0.0236
     38 C         -1.700653   1.81479   1.044608 C.3        1 UNL1     0.1131
     39 C         -0.740047   1.320285   2.200016 C.3        1 UNL1     0.0200
     40 C         0.915584   1.379218   2.005459 C.3        1 UNL1     0.0661
     41 C         1.781068   0.787305   0.671972 C.3        1 UNL1     0.0091
     42 C         3.337039   1.382527   -0.096186 C.3        1 UNL1     0.0661
     43 C         5.949173   8.493342   -4.413875 C.2        1 UNL1     0.2131
     44 O         6.135569   9.464898   -5.123856 O.2        1 UNL1     -0.2851
     45 O         5.492809   10.886551   -3.024931 O.3        1 UNL1     -0.5056
     46 O         3.258464   5.222825   -0.74305 O.2        1 UNL1     -0.2836
     47 C         5.591228   1.908352   1.230448 C.3        1 UNL1     -0.0566
     48 O         3.953315   0.035352   -0.162818 O.3        1 UNL1     -0.3909
     49 C         0.811212   0.508766   -0.454656 C.3        1 UNL1     -0.0577
     50 O         1.420305   2.643218   2.386621 O.3        1 UNL1     -0.3910
     51 O         -0.988641   4.156513   2.564842 O.3        1 UNL1     -0.3753
     52 C         -0.488142   3.194989   -1.030857 C.3        1 UNL1     -0.0564
     53 O         -2.300813   0.750318   0.173381 O.3        1 UNL1     -0.4608
     54 C         -2.319538   -0.59067   0.455038 C.2        1 UNL1     0.3042
     55 O         -1.705793   -1.484595   -0.126386 O.2        1 UNL1     -0.2512
     56 C         -3.15672   -0.942186   1.651815 C.3        1 UNL1     0.0332
     57 C         -1.346482   1.838553   3.58631 C.3        1 UNL1     -0.0567
     58 C         0.80921   7.413979   -0.981951 C.3        1 UNL1     0.0210
     59 C         -1.365379   5.241273   3.411736 C.3        1 UNL1     0.0372
     60 C         0.113324   5.21951   0.813114 C.2        1 UNL1     -0.0208
     61 C         1.084223   5.725104   1.575003 C.2        1 UNL1     0.0882
     62 H         4.377131   3.262054   0.100059 H        1 UNL1     0.0365
     63 H         5.775121   4.370378   -0.893657 H        1 UNL1     0.0576
     64 H         7.850993   2.561444   -2.277596 H        1 UNL1     0.0615
     65 H         7.396462   5.651922   -2.263202 H        1 UNL1     0.0622
     66 H         -1.949951   5.083517   1.024154 H        1 UNL1     0.0645
     67 H         -2.342888   3.400999   -0.206674 H        1 UNL1     0.0362
     68 H         -2.632083   2.115393   1.548193 H        1 UNL1     0.0741
     69 H         -0.920755   0.268334   2.376517 H        1 UNL1     0.0359
     70 H         1.227754   0.699303   2.821134 H        1 UNL1     0.0600
     71 H         2.003266   -0.238596   1.025684 H        1 UNL1     0.0348
     72 H         3.316077   1.809994   0.916804 H        1 UNL1     0.0602
     73 H         0.058468   5.475582   -0.215801 H        1 UNL1     0.0628
     74 H         1.244023   5.466644   2.622333 H        1 UNL1     0.1022
     75 H         10.018591   3.738217   -4.748006 H        1 UNL1     0.0279
     76 H         9.549674   4.95113   -5.87151 H        1 UNL1     0.0279
     77 H         10.824013   5.246887   -4.620956 H        1 UNL1     0.0279
     78 H         7.638608   6.104453   -5.905911 H        1 UNL1     0.1553
     79 H         6.603012   4.471878   -5.471786 H        1 UNL1     0.1484
     80 H         2.967953   3.417408   -5.134252 H        1 UNL1     0.0317
     81 H         3.446537   5.043208   -5.600788 H        1 UNL1     0.0317
     82 H         5.306389   4.149024   -7.027352 H        1 UNL1     0.0428
     83 H         3.740502   3.513495   -7.481009 H        1 UNL1     0.0428
     84 H         6.198109   0.993885   -5.090428 H        1 UNL1     0.0428
     85 H         6.869785   2.52329   -5.536404 H        1 UNL1     0.0428
     86 H         5.895269   2.340642   -3.246904 H        1 UNL1     0.0317
     87 H         4.339574   1.965423   -3.831176 H        1 UNL1     0.0317
     88 H         5.9846   2.098053   -8.233658 H        1 UNL1     0.0429
     89 H         5.93039   0.540032   -7.405488 H        1 UNL1     0.0429
     90 H         3.224542   1.044613   -7.797595 H        1 UNL1     0.0308
     91 H         4.686794   2.24483   -10.221817 H        1 UNL1     0.0233
     92 H         2.945727   1.874742   -10.136872 H        1 UNL1     0.0233
     93 H         3.630009   3.133991   -9.131559 H        1 UNL1     0.0233
     94 H         3.446614   -0.483095   -9.790673 H        1 UNL1     0.0233
     95 H         5.200038   -0.398803   -9.561049 H        1 UNL1     0.0233
     96 H         4.167778   -1.074576   -8.279737 H        1 UNL1     0.0233
     97 H         2.839471   10.945535   -0.011008 H        1 UNL1     0.0280
     98 H         4.307611   11.770266   -0.459974 H        1 UNL1     0.0280
     99 H         2.951085   11.677727   -1.622301 H        1 UNL1     0.0280
     100 H         4.900584   11.587105   -3.234971 H        1 UNL1     0.2922
     101 H         4.86597   1.348222   1.820288 H        1 UNL1     0.0236
     102 H         6.022146   2.736922   1.791486 H        1 UNL1     0.0236
     103 H         6.428537   1.207217   1.077101 H        1 UNL1     0.0236
     104 H         4.504923   -0.076502   0.636049 H        1 UNL1     0.2098
     105 H         0.416715   1.398997   -0.938053 H        1 UNL1     0.0234
     106 H         1.171823   -0.198332   -1.201581 H        1 UNL1     0.0234
     107 H         0.0   -0.0   0.0 H        1 UNL1     0.0234
     108 H         1.047602   3.302401   1.769904 H        1 UNL1     0.2098
     109 H         0.586619   3.192133   -0.801529 H        1 UNL1     0.0234
     110 H         -0.717594   2.376471   -1.721597 H        1 UNL1     0.0234
     111 H         -0.662843   4.101739   -1.625189 H        1 UNL1     0.0234
     112 H         -3.125986   -2.022484   1.823155 H        1 UNL1     0.0342
     113 H         -2.847985   -0.396445   2.542149 H        1 UNL1     0.0342
     114 H         -4.197686   -0.664954   1.435722 H        1 UNL1     0.0342
     115 H         -2.353956   1.43879   3.766233 H        1 UNL1     0.0234
     116 H         -0.735568   1.593458   4.457379 H        1 UNL1     0.0234
     117 H         -1.542162   2.924553   3.602255 H        1 UNL1     0.0234
     118 H         -0.074171   7.767174   -0.421685 H        1 UNL1     0.0309
     119 H         0.983363   8.079998   -1.833005 H        1 UNL1     0.0309
     120 H         0.47476   6.46095   -1.406197 H        1 UNL1     0.0309
     121 H         -0.684764   6.068167   3.210823 H        1 UNL1     0.0524
     122 H         -2.388963   5.596424   3.206358 H        1 UNL1     0.0524
     123 H         -1.297605   4.944948   4.454662 H        1 UNL1     0.0524
@<TRIPOS>BOND
     1     1     2    1
     2     1    42    1
     3     2     3    2
     4     3     4    1
     5     4     5    2
     6     5     7    1
     7     6    75    1
     8     6    76    1
     9     6    77    1
    10     7     9   am
    11     9    10    1
    12    10    11    2
    13    10    43    1
    14    11    14    1
    15    11    15    1
    16    12    13   ar
    17    12    27   ar
    18    12    43    1
    19    13    14    1
    20    13    30   ar
    21    14    17    2
    22    15    16    1
    23    16    17    1
    24    16    18    1
    25    16    22    1
    26    18    19    1
    27    19    20    1
    28    20    21    1
    29    21    22    1
    30    23    24    1
    31    23    88    1
    32    23    89    1
    33    24    25    1
    34    24    26    1
    35    24    90    1
    36    25    91    1
    37    25    92    1
    38    25    93    1
    39    26    94    1
    40    26    95    1
    41    26    96    1
    42    27    28   ar
    43    28    29   ar
    44    29    30   ar
    45    29    31    1
    46    30    33    1
    47    31    32    1
    48    32    33    1
    49    32    35    1
    50    34    97    1
    51    34    98    1
    52    34    99    1
    53    35    61    1
    54    36    37    1
    55    36    60    1
    56    37    38    1
    57    38    39    1
    58    39    40    1
    59    40    41    1
    60    41    42    1
    61    45   100    1
    62    47   101    1
    63    47   102    1
    64    47   103    1
    65    48   104    1
    66    49   105    1
    67    49   106    1
    68    49   107    1
    69    50   108    1
    70    51    59    1
    71    52   109    1
    72    52   110    1
    73    52   111    1
    74    53    54    1
    75    54    55    2
    76    54    56    1
    77    56   112    1
    78    56   113    1
    79    56   114    1
    80    57   115    1
    81    57   116    1
    82    57   117    1
    83    58   118    1
    84    58   119    1
    85    58   120    1
    86    59   121    1
    87    59   122    1
    88    59   123    1
    89    60    61    2
    90     1    47    1
    91     1    62    1
    92     2    63    1
    93     3    64    1
    94     4    65    1
    95     5     6    1
    96     7     8    2
    97     9    78    1
    98    15    79    1
    99    18    80    1
   100    18    81    1
   101    19    82    1
   102    19    83    1
   103    20    23    1
   104    21    84    1
   105    21    85    1
   106    22    86    1
   107    22    87    1
   108    27    45    1
   109    28    34    1
   110    32    58    1
   111    33    46    2
   112    36    51    1
   113    36    66    1
   114    37    52    1
   115    37    67    1
   116    38    53    1
   117    38    68    1
   118    42    48    1
   119    42    72    1
   120    43    44    2
   121    60    73    1
   122    61    74    1
   123    39    69    1
   124    39    57    1
   125    40    70    1
   126    40    50    1
   127    41    71    1
   128    41    49    1
