@<TRIPOS>MOLECULE
*****
 123 128 0 0 0
SMALL
GASTEIGER

@<TRIPOS>ATOM
     1 C         5.166505   1.759933   0.457311 C.3        1 UNL1     0.0009
     2 C         6.595952   2.568794   -0.402609 C.2        1 UNL1     -0.0787
     3 C         7.873709   2.473097   -1.076572 C.2        1 UNL1     -0.0649
     4 C         8.74363   3.709817   -1.838227 C.2        1 UNL1     -0.0542
     5 C         9.756946   4.004299   -2.783503 C.2        1 UNL1     0.0115
     6 C         10.880856   3.380949   -3.656192 C.3        1 UNL1     -0.0348
     7 C         9.845211   5.487542   -3.391112 C.2        1 UNL1     0.2441
     8 O         10.669769   6.311069   -3.019046 O.2        1 UNL1     -0.2702
     9 N         9.087004   5.692504   -4.556987 N.am        1 UNL1     -0.2772
     10 C         7.805524   6.07657   -4.235081 C.2        1 UNL1     0.1049
     11 C         6.963709   5.103466   -3.937361 C.2        1 UNL1     0.0801
     12 C         6.51286   7.680956   -2.816525 C.ar        1 UNL1     0.0753
     13 C         5.759108   6.551588   -2.363761 C.ar        1 UNL1     0.0305
     14 C         5.874643   5.245912   -3.009449 C.2        1 UNL1     0.0924
     15 N         7.088123   3.774696   -4.096791 N.pl3        1 UNL1     -0.3170
     16 C         5.821597   3.172941   -3.774215 C.3        1 UNL1     0.1275
     17 N         5.189511   4.127166   -2.790525 N.2        1 UNL1     -0.2557
     18 C         4.960479   3.229756   -5.032368 C.3        1 UNL1     0.0016
     19 C         5.709505   2.546872   -6.165602 C.3        1 UNL1     0.0026
     20 N         5.985063   1.169483   -5.781031 N.3        1 UNL1     -0.3018
     21 C         6.75675   1.011146   -4.546609 C.3        1 UNL1     0.0026
     22 C         5.983797   1.700404   -3.420838 C.3        1 UNL1     0.0016
     23 C         6.424133   0.350501   -6.893295 C.3        1 UNL1     0.0012
     24 C         5.2629   0.098227   -7.867796 C.3        1 UNL1     -0.0339
     25 C         5.348139   1.020596   -9.094999 C.3        1 UNL1     -0.0615
     26 C         5.229475   -1.365919   -8.270211 C.3        1 UNL1     -0.0615
     27 C         6.308996   8.948402   -2.276027 C.ar        1 UNL1     0.1347
     28 C         5.355589   9.216251   -1.309941 C.ar        1 UNL1     0.0342
     29 C         4.65943   8.080477   -0.8446 C.ar        1 UNL1     0.1435
     30 C         4.878328   6.79874   -1.351014 C.ar        1 UNL1     0.0774
     31 O         3.623737   8.192134   0.015562 O.3        1 UNL1     -0.4436
     32 C         2.903778   6.957735   -0.121511 C.3        1 UNL1     0.3143
     33 C         3.915723   5.966594   -0.659861 C.2        1 UNL1     0.2504
     34 C         4.908706   10.58156   -0.866852 C.3        1 UNL1     -0.0327
     35 O         2.552587   6.520738   1.197182 O.2        1 UNL1     -0.4528
     36 C         -0.688842   4.581529   0.82209 C.3        1 UNL1     0.0854
     37 C         -0.997264   3.319979   -0.072834 C.3        1 UNL1     0.0236
     38 C         -1.59003   2.057945   0.719404 C.3        1 UNL1     0.1131
     39 C         -0.854743   1.529019   2.01627 C.3        1 UNL1     0.0200
     40 C         0.806986   1.387016   2.046742 C.3        1 UNL1     0.0661
     41 C         1.760407   0.619804   0.872014 C.3        1 UNL1     0.0091
     42 C         3.463536   0.985783   0.29685 C.3        1 UNL1     0.0661
     43 C         7.456071   7.474867   -3.94353 C.2        1 UNL1     0.2131
     44 O         7.849388   8.373533   -4.664945 O.2        1 UNL1     -0.2851
     45 O         7.116078   9.985066   -2.740122 O.3        1 UNL1     -0.5056
     46 O         3.935115   4.763144   -0.528771 O.2        1 UNL1     -0.2836
     47 C         5.573075   1.33182   1.893069 C.3        1 UNL1     -0.0566
     48 O         3.915616   -0.424338   0.376224 O.3        1 UNL1     -0.3909
     49 C         0.91871   0.384994   -0.362451 C.3        1 UNL1     -0.0577
     50 O         1.407125   2.606292   2.435229 O.3        1 UNL1     -0.3910
     51 O         -0.803521   4.392098   2.214353 O.3        1 UNL1     -0.3753
     52 C         0.04005   3.161304   -1.232037 C.3        1 UNL1     -0.0564
     53 O         -2.196235   1.017356   -0.17615 O.3        1 UNL1     -0.4608
     54 C         -2.394518   -0.297842   0.153799 C.2        1 UNL1     0.3042
     55 O         -1.812444   -1.279265   -0.30646 O.2        1 UNL1     -0.2512
     56 C         -3.40841   -0.498096   1.244044 C.3        1 UNL1     0.0332
     57 C         -1.569013   2.196943   3.281921 C.3        1 UNL1     -0.0567
     58 C         1.82107   7.200147   -1.19878 C.3        1 UNL1     0.0210
     59 C         -1.114424   5.570708   2.956029 C.3        1 UNL1     0.0372
     60 C         0.637295   5.213345   0.582653 C.2        1 UNL1     -0.0208
     61 C         1.554913   5.650833   1.445976 C.2        1 UNL1     0.0882
     62 H         4.689072   2.743127   0.547309 H        1 UNL1     0.0365
     63 H         6.328156   3.622065   -0.295957 H        1 UNL1     0.0576
     64 H         8.331974   1.507138   -1.300234 H        1 UNL1     0.0615
     65 H         8.256861   4.624306   -1.488588 H        1 UNL1     0.0622
     66 H         -1.437068   5.326362   0.51643 H        1 UNL1     0.0645
     67 H         -1.867407   3.627283   -0.67862 H        1 UNL1     0.0362
     68 H         -2.535727   2.492942   1.077112 H        1 UNL1     0.0741
     69 H         -1.182848   0.517293   2.214176 H        1 UNL1     0.0359
     70 H         0.925867   0.72725   2.927445 H        1 UNL1     0.0600
     71 H         1.80892   -0.401108   1.29903 H        1 UNL1     0.0348
     72 H         3.362966   1.474126   1.277014 H        1 UNL1     0.0602
     73 H         0.748055   5.410458   -0.454712 H        1 UNL1     0.0628
     74 H         1.544744   5.44053   2.515979 H        1 UNL1     0.1022
     75 H         10.87709   2.268064   -3.563957 H        1 UNL1     0.0279
     76 H         10.798124   3.527228   -4.73082 H        1 UNL1     0.0279
     77 H         11.888696   3.625439   -3.289882 H        1 UNL1     0.0279
     78 H         9.023451   4.82223   -5.081068 H        1 UNL1     0.1553
     79 H         7.750286   3.347885   -4.718326 H        1 UNL1     0.1484
     80 H         4.001519   2.736859   -4.831832 H        1 UNL1     0.0317
     81 H         4.729921   4.265925   -5.302271 H        1 UNL1     0.0317
     82 H         6.637413   3.080052   -6.419805 H        1 UNL1     0.0428
     83 H         5.078473   2.600357   -7.053289 H        1 UNL1     0.0428
     84 H         6.881283   -0.031433   -4.23785 H        1 UNL1     0.0428
     85 H         7.785366   1.381321   -4.657233 H        1 UNL1     0.0428
     86 H         6.506623   1.451476   -2.516031 H        1 UNL1     0.0317
     87 H         5.006199   1.220741   -3.289232 H        1 UNL1     0.0317
     88 H         7.215612   0.893785   -7.425928 H        1 UNL1     0.0429
     89 H         6.860998   -0.594221   -6.544836 H        1 UNL1     0.0429
     90 H         4.313911   0.28905   -7.352802 H        1 UNL1     0.0308
     91 H         6.300355   0.897562   -9.619642 H        1 UNL1     0.0233
     92 H         4.528104   0.818302   -9.787984 H        1 UNL1     0.0233
     93 H         5.267355   2.080978   -8.826861 H        1 UNL1     0.0233
     94 H         4.569253   -1.505505   -9.133031 H        1 UNL1     0.0233
     95 H         6.231655   -1.698008   -8.555371 H        1 UNL1     0.0233
     96 H         4.867971   -1.996241   -7.452912 H        1 UNL1     0.0233
     97 H         4.081125   10.531731   -0.165526 H        1 UNL1     0.0280
     98 H         5.706983   11.13116   -0.35115 H        1 UNL1     0.0280
     99 H         4.58424   11.166141   -1.743254 H        1 UNL1     0.0280
     100 H         6.646335   10.74734   -3.029781 H        1 UNL1     0.2922
     101 H         4.711337   0.907955   2.40824 H        1 UNL1     0.0236
     102 H         6.036963   2.134981   2.464667 H        1 UNL1     0.0236
     103 H         6.321844   0.522187   1.887401 H        1 UNL1     0.0236
     104 H         4.335707   -0.55069   1.249454 H        1 UNL1     0.2098
     105 H         0.700445   1.283154   -0.93471 H        1 UNL1     0.0234
     106 H         1.285511   -0.402493   -1.020668 H        1 UNL1     0.0234
     107 H         0.0   -0.0   0.0 H        1 UNL1     0.0234
     108 H         1.256524   3.246685   1.713436 H        1 UNL1     0.2098
     109 H         1.068986   3.062542   -0.858877 H        1 UNL1     0.0234
     110 H         -0.188307   2.325858   -1.902579 H        1 UNL1     0.0234
     111 H         0.046312   4.038661   -1.892455 H        1 UNL1     0.0234
     112 H         -3.503276   -1.563928   1.472844 H        1 UNL1     0.0342
     113 H         -3.166084   0.073505   2.138691 H        1 UNL1     0.0342
     114 H         -4.381657   -0.144592   0.876635 H        1 UNL1     0.0342
     115 H         -2.656364   2.039976   3.267218 H        1 UNL1     0.0234
     116 H         -1.198038   1.835484   4.243052 H        1 UNL1     0.0234
     117 H         -1.512876   3.299102   3.287885 H        1 UNL1     0.0234
     118 H         0.919805   7.681063   -0.779916 H        1 UNL1     0.0309
     119 H         2.182416   7.79248   -2.045405 H        1 UNL1     0.0309
     120 H         1.435031   6.267324   -1.62413 H        1 UNL1     0.0309
     121 H         -0.278558   6.260752   2.844118 H        1 UNL1     0.0524
     122 H         -2.016881   6.078079   2.576314 H        1 UNL1     0.0524
     123 H         -1.261637   5.327155   4.004411 H        1 UNL1     0.0524
@<TRIPOS>BOND
     1     1     2    1
     2     1    42    1
     3     2     3    2
     4     3     4    1
     5     4     5    2
     6     5     7    1
     7     6    75    1
     8     6    76    1
     9     6    77    1
    10     7     9   am
    11     9    10    1
    12    10    11    2
    13    10    43    1
    14    11    14    1
    15    11    15    1
    16    12    13   ar
    17    12    27   ar
    18    12    43    1
    19    13    14    1
    20    13    30   ar
    21    14    17    2
    22    15    16    1
    23    16    17    1
    24    16    18    1
    25    16    22    1
    26    18    19    1
    27    19    20    1
    28    20    21    1
    29    21    22    1
    30    23    24    1
    31    23    88    1
    32    23    89    1
    33    24    25    1
    34    24    26    1
    35    24    90    1
    36    25    91    1
    37    25    92    1
    38    25    93    1
    39    26    94    1
    40    26    95    1
    41    26    96    1
    42    27    28   ar
    43    28    29   ar
    44    29    30   ar
    45    29    31    1
    46    30    33    1
    47    31    32    1
    48    32    33    1
    49    32    35    1
    50    34    97    1
    51    34    98    1
    52    34    99    1
    53    35    61    1
    54    36    37    1
    55    36    60    1
    56    37    38    1
    57    38    39    1
    58    39    40    1
    59    40    41    1
    60    41    42    1
    61    45   100    1
    62    47   101    1
    63    47   102    1
    64    47   103    1
    65    48   104    1
    66    49   105    1
    67    49   106    1
    68    49   107    1
    69    50   108    1
    70    51    59    1
    71    52   109    1
    72    52   110    1
    73    52   111    1
    74    53    54    1
    75    54    55    2
    76    54    56    1
    77    56   112    1
    78    56   113    1
    79    56   114    1
    80    57   115    1
    81    57   116    1
    82    57   117    1
    83    58   118    1
    84    58   119    1
    85    58   120    1
    86    59   121    1
    87    59   122    1
    88    59   123    1
    89    60    61    2
    90     1    47    1
    91     1    62    1
    92     2    63    1
    93     3    64    1
    94     4    65    1
    95     5     6    1
    96     7     8    2
    97     9    78    1
    98    15    79    1
    99    18    80    1
   100    18    81    1
   101    19    82    1
   102    19    83    1
   103    20    23    1
   104    21    84    1
   105    21    85    1
   106    22    86    1
   107    22    87    1
   108    27    45    1
   109    28    34    1
   110    32    58    1
   111    33    46    2
   112    36    51    1
   113    36    66    1
   114    37    52    1
   115    37    67    1
   116    38    53    1
   117    38    68    1
   118    42    48    1
   119    42    72    1
   120    43    44    2
   121    60    73    1
   122    61    74    1
   123    39    69    1
   124    39    57    1
   125    40    70    1
   126    40    50    1
   127    41    71    1
   128    41    49    1
