@<TRIPOS>MOLECULE
*****
 123 128 0 0 0
SMALL
GASTEIGER

@<TRIPOS>ATOM
     1 C         0.149378   3.983713   -1.613076 C.3        1 UNL1     0.0009
     2 C         -1.12002   4.841677   -2.656898 C.2        1 UNL1     -0.0787
     3 C         -1.552366   5.355838   -3.93938 C.2        1 UNL1     -0.0649
     4 C         -3.056759   6.021024   -4.340238 C.2        1 UNL1     -0.0542
     5 C         -3.94271   6.333345   -5.400721 C.2        1 UNL1     0.0115
     6 C         -4.070073   6.424028   -6.946321 C.3        1 UNL1     -0.0348
     7 C         -5.488725   6.607201   -5.066311 C.2        1 UNL1     0.2441
     8 O         -5.97021   7.730754   -5.018092 O.2        1 UNL1     -0.2702
     9 N         -6.30777   5.464945   -5.090115 N.am        1 UNL1     -0.2772
     10 C         -6.317715   4.855393   -3.856556 C.2        1 UNL1     0.1049
     11 C         -5.307017   4.045031   -3.599604 C.2        1 UNL1     0.0801
     12 C         -6.615586   5.32009   -1.416748 C.ar        1 UNL1     0.0753
     13 C         -5.393489   4.603962   -1.211204 C.ar        1 UNL1     0.0305
     14 C         -4.769942   3.831129   -2.283104 C.2        1 UNL1     0.0924
     15 N         -4.368143   3.547258   -4.422567 N.pl3        1 UNL1     -0.3170
     16 C         -3.602937   2.579667   -3.681972 C.3        1 UNL1     0.1275
     17 N         -3.704516   3.035839   -2.246942 N.2        1 UNL1     -0.2557
     18 C         -4.354263   1.254051   -3.759134 C.3        1 UNL1     0.0016
     19 C         -4.566505   0.899789   -5.222364 C.3        1 UNL1     0.0026
     20 N         -3.267417   0.80445   -5.873755 N.3        1 UNL1     -0.3018
     21 C         -2.444085   2.013111   -5.798701 C.3        1 UNL1     0.0026
     22 C         -2.239654   2.348013   -4.320207 C.3        1 UNL1     0.0016
     23 C         -3.336687   0.184523   -7.182011 C.3        1 UNL1     0.0012
     24 C         -3.646564   1.234993   -8.260086 C.3        1 UNL1     -0.0339
     25 C         -4.512825   0.646717   -9.385955 C.3        1 UNL1     -0.0615
     26 C         -4.30094   2.451616   -7.628897 C.3        1 UNL1     -0.0615
     27 C         -7.26691   5.954047   -0.361288 C.ar        1 UNL1     0.1347
     28 C         -6.815224   5.908082   0.945585 C.ar        1 UNL1     0.0342
     29 C         -5.584658   5.238833   1.115819 C.ar        1 UNL1     0.1435
     30 C         -4.90233   4.629945   0.061825 C.ar        1 UNL1     0.0774
     31 O         -5.068811   5.013794   2.343933 O.3        1 UNL1     -0.4436
     32 C         -4.12781   3.94675   2.15208 C.3        1 UNL1     0.3143
     33 C         -3.752637   4.00838   0.685227 C.2        1 UNL1     0.2504
     34 C         -7.585177   6.345484   2.160472 C.3        1 UNL1     -0.0327
     35 O         -2.95017   4.278044   2.898178 O.2        1 UNL1     -0.4528
     36 C         -1.413001   0.967629   3.94046 C.3        1 UNL1     0.0854
     37 C         -0.945344   -0.240746   3.041209 C.3        1 UNL1     0.0236
     38 C         0.57712   -0.695335   3.258455 C.3        1 UNL1     0.1131
     39 C         1.733056   0.383463   3.210747 C.3        1 UNL1     0.0200
     40 C         1.740072   1.562626   2.030932 C.3        1 UNL1     0.0661
     41 C         1.553605   1.302558   0.365037 C.3        1 UNL1     0.0091
     42 C         0.786835   2.357036   -0.925522 C.3        1 UNL1     0.0661
     43 C         -7.213676   5.289999   -2.774555 C.2        1 UNL1     0.2131
     44 O         -8.391978   5.502994   -2.995863 O.2        1 UNL1     -0.2851
     45 O         -8.426948   6.667975   -0.654641 O.3        1 UNL1     -0.5056
     46 O         -2.726663   3.6464   0.154001 O.2        1 UNL1     -0.2836
     47 C         1.33545   4.939122   -1.312394 C.3        1 UNL1     -0.0566
     48 O         1.911654   2.204506   -1.879792 O.3        1 UNL1     -0.3909
     49 C         1.044857   -0.104615   0.144739 C.3        1 UNL1     -0.0577
     50 O         0.973851   2.679729   2.434305 O.3        1 UNL1     -0.3910
     51 O         -0.402704   1.606548   4.687797 O.3        1 UNL1     -0.3753
     52 C         -1.607457   -0.202624   1.625193 C.3        1 UNL1     -0.0564
     53 O         0.892607   -2.039009   2.669103 O.3        1 UNL1     -0.4608
     54 C         2.024684   -2.351563   1.962959 C.2        1 UNL1     0.3042
     55 O         2.860697   -3.212376   2.234849 O.2        1 UNL1     -0.2512
     56 C         2.180837   -1.559933   0.695816 C.3        1 UNL1     0.0332
     57 C         2.035589   0.833026   4.715587 C.3        1 UNL1     -0.0567
     58 C         -4.897964   2.631777   2.415212 C.3        1 UNL1     0.0210
     59 C         -0.444701   1.353693   6.091423 C.3        1 UNL1     0.0372
     60 C         -2.155374   2.037466   3.219703 C.2        1 UNL1     -0.0208
     61 C         -2.039081   3.364496   3.284615 C.2        1 UNL1     0.0882
     62 H         -0.53383   4.054312   -0.758117 H        1 UNL1     0.0365
     63 H         -1.863749   5.101305   -1.900637 H        1 UNL1     0.0576
     64 H         -0.963162   5.201478   -4.846088 H        1 UNL1     0.0615
     65 H         -3.526185   6.20708   -3.370441 H        1 UNL1     0.0622
     66 H         -2.130829   0.525359   4.64556 H        1 UNL1     0.0645
     67 H         -1.493591   -1.107189   3.450185 H        1 UNL1     0.0362
     68 H         0.524083   -1.019881   4.308873 H        1 UNL1     0.0741
     69 H         2.674869   -0.122668   3.045737 H        1 UNL1     0.0359
     70 H         2.789876   1.904452   2.109215 H        1 UNL1     0.0600
     71 H         2.614998   1.198972   0.065584 H        1 UNL1     0.0348
     72 H         1.010277   3.025271   -0.081217 H        1 UNL1     0.0602
     73 H         -2.954068   1.60089   2.673134 H        1 UNL1     0.0628
     74 H         -1.217488   3.888286   3.774376 H        1 UNL1     0.1022
     75 H         -3.561166   7.341654   -7.328435 H        1 UNL1     0.0279
     76 H         -3.590331   5.634075   -7.519811 H        1 UNL1     0.0279
     77 H         -5.104465   6.595556   -7.278455 H        1 UNL1     0.0279
     78 H         -5.939112   4.793629   -5.760566 H        1 UNL1     0.1553
     79 H         -4.462074   3.517152   -5.421167 H        1 UNL1     0.1484
     80 H         -3.772314   0.48255   -3.24059 H        1 UNL1     0.0317
     81 H         -5.31792   1.319821   -3.242713 H        1 UNL1     0.0317
     82 H         -5.210719   1.633082   -5.729494 H        1 UNL1     0.0428
     83 H         -5.105403   -0.047638   -5.25432 H        1 UNL1     0.0428
     84 H         -1.443712   1.88957   -6.225084 H        1 UNL1     0.0428
     85 H         -2.879557   2.840821   -6.375396 H        1 UNL1     0.0428
     86 H         -1.528419   3.152857   -4.301291 H        1 UNL1     0.0317
     87 H         -1.708952   1.528545   -3.820284 H        1 UNL1     0.0317
     88 H         -2.357942   -0.262267   -7.400487 H        1 UNL1     0.0429
     89 H         -4.072829   -0.629465   -7.199088 H        1 UNL1     0.0429
     90 H         -2.705355   1.592557   -8.694235 H        1 UNL1     0.0308
     91 H         -5.347046   0.064589   -8.983085 H        1 UNL1     0.0233
     92 H         -4.905355   1.440267   -10.026116 H        1 UNL1     0.0233
     93 H         -3.945198   -0.023434   -10.042866 H        1 UNL1     0.0233
     94 H         -4.863481   3.012019   -8.383438 H        1 UNL1     0.0233
     95 H         -5.001794   2.137246   -6.850477 H        1 UNL1     0.0233
     96 H         -3.557299   3.119697   -7.185462 H        1 UNL1     0.0233
     97 H         -7.712398   5.537627   2.874904 H        1 UNL1     0.0280
     98 H         -7.075852   7.151082   2.705316 H        1 UNL1     0.0280
     99 H         -8.584213   6.69876   1.8568 H        1 UNL1     0.0280
     100 H         -8.288435   7.579316   -0.844099 H        1 UNL1     0.2922
     101 H         2.211298   4.358392   -1.023779 H        1 UNL1     0.0236
     102 H         1.092626   5.705724   -0.577315 H        1 UNL1     0.0236
     103 H         1.653481   5.49899   -2.207713 H        1 UNL1     0.0236
     104 H         2.529092   1.546192   -1.505139 H        1 UNL1     0.2098
     105 H         1.454584   -0.598035   -0.733027 H        1 UNL1     0.0234
     106 H         1.119721   -0.757271   1.01443 H        1 UNL1     0.0234
     107 H         -0.0   0.0   0.0 H        1 UNL1     0.0234
     108 H         1.56746   3.27404   2.932493 H        1 UNL1     0.2098
     109 H         -2.703414   -0.265439   1.67662 H        1 UNL1     0.0234
     110 H         -1.317922   0.675636   1.038191 H        1 UNL1     0.0234
     111 H         -1.289705   -1.052676   1.006816 H        1 UNL1     0.0234
     112 H         3.238242   -1.336623   0.524429 H        1 UNL1     0.0342
     113 H         1.745195   -2.06998   -0.162037 H        1 UNL1     0.0342
     114 H         1.650903   -0.605518   0.820017 H        1 UNL1     0.0342
     115 H         3.099658   1.060604   4.867752 H        1 UNL1     0.0234
     116 H         1.463594   1.703728   5.042309 H        1 UNL1     0.0234
     117 H         1.882088   0.027851   5.454554 H        1 UNL1     0.0234
     118 H         -4.568636   2.137562   3.345964 H        1 UNL1     0.0309
     119 H         -5.98352   2.768704   2.447174 H        1 UNL1     0.0309
     120 H         -4.710428   1.87383   1.646803 H        1 UNL1     0.0309
     121 H         0.21005   0.506456   6.293531 H        1 UNL1     0.0524
     122 H         -0.073796   2.208101   6.681723 H        1 UNL1     0.0524
     123 H         -1.460277   1.124997   6.401902 H        1 UNL1     0.0524
@<TRIPOS>BOND
     1     1     2    1
     2     1    42    1
     3     2     3    2
     4     3     4    1
     5     4     5    2
     6     5     7    1
     7     6    75    1
     8     6    76    1
     9     6    77    1
    10     7     9   am
    11     9    10    1
    12    10    11    2
    13    10    43    1
    14    11    14    1
    15    11    15    1
    16    12    13   ar
    17    12    27   ar
    18    12    43    1
    19    13    14    1
    20    13    30   ar
    21    14    17    2
    22    15    16    1
    23    16    17    1
    24    16    18    1
    25    16    22    1
    26    18    19    1
    27    19    20    1
    28    20    21    1
    29    21    22    1
    30    23    24    1
    31    23    88    1
    32    23    89    1
    33    24    25    1
    34    24    26    1
    35    24    90    1
    36    25    91    1
    37    25    92    1
    38    25    93    1
    39    26    94    1
    40    26    95    1
    41    26    96    1
    42    27    28   ar
    43    28    29   ar
    44    29    30   ar
    45    29    31    1
    46    30    33    1
    47    31    32    1
    48    32    33    1
    49    32    35    1
    50    34    97    1
    51    34    98    1
    52    34    99    1
    53    35    61    1
    54    36    37    1
    55    36    60    1
    56    37    38    1
    57    38    39    1
    58    39    40    1
    59    40    41    1
    60    41    42    1
    61    45   100    1
    62    47   101    1
    63    47   102    1
    64    47   103    1
    65    48   104    1
    66    49   105    1
    67    49   106    1
    68    49   107    1
    69    50   108    1
    70    51    59    1
    71    52   109    1
    72    52   110    1
    73    52   111    1
    74    53    54    1
    75    54    55    2
    76    54    56    1
    77    56   112    1
    78    56   113    1
    79    56   114    1
    80    57   115    1
    81    57   116    1
    82    57   117    1
    83    58   118    1
    84    58   119    1
    85    58   120    1
    86    59   121    1
    87    59   122    1
    88    59   123    1
    89    60    61    2
    90     1    47    1
    91     1    62    1
    92     2    63    1
    93     3    64    1
    94     4    65    1
    95     5     6    1
    96     7     8    2
    97     9    78    1
    98    15    79    1
    99    18    80    1
   100    18    81    1
   101    19    82    1
   102    19    83    1
   103    20    23    1
   104    21    84    1
   105    21    85    1
   106    22    86    1
   107    22    87    1
   108    27    45    1
   109    28    34    1
   110    32    58    1
   111    33    46    2
   112    36    51    1
   113    36    66    1
   114    37    52    1
   115    37    67    1
   116    38    53    1
   117    38    68    1
   118    42    48    1
   119    42    72    1
   120    43    44    2
   121    60    73    1
   122    61    74    1
   123    39    69    1
   124    39    57    1
   125    40    70    1
   126    40    50    1
   127    41    71    1
   128    41    49    1
