@<TRIPOS>MOLECULE
*****
 123 128 0 0 0
SMALL
GASTEIGER

@<TRIPOS>ATOM
     1 C         0.680513   4.395551   1.088175 C.3        1 UNL1     0.0009
     2 C         -0.387784   5.81106   1.628647 C.2        1 UNL1     -0.0787
     3 C         -1.303094   6.886765   1.310666 C.2        1 UNL1     -0.0649
     4 C         -2.138217   7.89421   2.384902 C.2        1 UNL1     -0.0542
     5 C         -3.242099   8.769263   2.535918 C.2        1 UNL1     0.0115
     6 C         -4.356025   9.531253   1.766592 C.3        1 UNL1     -0.0348
     7 C         -3.757825   9.121181   4.014826 C.2        1 UNL1     0.2441
     8 O         -3.501408   10.178029   4.575048 O.2        1 UNL1     -0.2702
     9 N         -4.73737   8.248674   4.52017 N.am        1 UNL1     -0.2772
     10 C         -4.147168   7.180944   5.156516 C.2        1 UNL1     0.1049
     11 C         -3.754457   6.186155   4.381664 C.2        1 UNL1     0.0801
     12 C         -2.402523   6.59977   6.85233 C.ar        1 UNL1     0.0753
     13 C         -1.885413   5.676394   5.8887 C.ar        1 UNL1     0.0305
     14 C         -2.624458   5.345909   4.672294 C.2        1 UNL1     0.0924
     15 N         -4.020883   5.942622   3.086968 N.pl3        1 UNL1     -0.3170
     16 C         -3.496828   4.641188   2.767765 C.3        1 UNL1     0.1275
     17 N         -2.348898   4.45   3.728716 N.2        1 UNL1     -0.2557
     18 C         -4.556178   3.617415   3.164464 C.3        1 UNL1     0.0016
     19 C         -5.855708   3.962299   2.454629 C.3        1 UNL1     0.0026
     20 N         -5.622449   3.944766   1.017162 N.3        1 UNL1     -0.3018
     21 C         -4.575434   4.853726   0.546077 C.3        1 UNL1     0.0026
     22 C         -3.27812   4.486369   1.268517 C.3        1 UNL1     0.0016
     23 C         -6.849737   3.963909   0.246422 C.3        1 UNL1     0.0012
     24 C         -7.301366   5.410054   -0.011364 C.3        1 UNL1     -0.0339
     25 C         -8.5706   5.753364   0.785654 C.3        1 UNL1     -0.0615
     26 C         -6.168514   6.372707   0.299644 C.3        1 UNL1     -0.0615
     27 C         -1.751642   6.818294   8.064237 C.ar        1 UNL1     0.1347
     28 C         -0.602657   6.145391   8.439851 C.ar        1 UNL1     0.0342
     29 C         -0.084903   5.277422   7.455105 C.ar        1 UNL1     0.1435
     30 C         -0.706293   5.075526   6.222087 C.ar        1 UNL1     0.0774
     31 O         0.966375   4.468501   7.710972 O.3        1 UNL1     -0.4436
     32 C         0.892867   3.448605   6.70336 C.3        1 UNL1     0.3143
     33 C         0.104158   4.069409   5.568127 C.2        1 UNL1     0.2504
     34 C         0.006709   6.140255   9.814168 C.3        1 UNL1     -0.0327
     35 O         2.223611   3.23289   6.217727 O.2        1 UNL1     -0.4528
     36 C         2.363996   -0.406484   5.148458 C.3        1 UNL1     0.0854
     37 C         1.466715   -1.172757   4.101923 C.3        1 UNL1     0.0236
     38 C         2.275993   -1.917371   2.93472 C.3        1 UNL1     0.1131
     39 C         3.36721   -1.125494   2.107407 C.3        1 UNL1     0.0200
     40 C         3.063259   0.426302   1.576388 C.3        1 UNL1     0.0661
     41 C         1.677735   0.937391   0.741688 C.3        1 UNL1     0.0091
     42 C         0.805943   2.551421   0.758609 C.3        1 UNL1     0.0661
     43 C         -3.702989   7.250605   6.556589 C.2        1 UNL1     0.2131
     44 O         -4.42755   7.726157   7.411925 O.2        1 UNL1     -0.2851
     45 O         -2.296264   7.767158   8.92707 O.3        1 UNL1     -0.5056
     46 O         0.150668   3.807781   4.386923 O.2        1 UNL1     -0.2836
     47 C         1.978387   4.923883   0.420065 C.3        1 UNL1     -0.0566
     48 O         0.703939   2.640815   -0.718117 O.3        1 UNL1     -0.3909
     49 C         0.618876   -0.137164   0.849587 C.3        1 UNL1     -0.0577
     50 O         3.405224   1.371894   2.569685 O.3        1 UNL1     -0.3910
     51 O         3.736583   -0.32195   4.838152 O.3        1 UNL1     -0.3753
     52 C         0.119433   -0.425972   3.833422 C.3        1 UNL1     -0.0564
     53 O         1.450578   -2.911693   2.171608 O.3        1 UNL1     -0.4608
     54 C         1.941233   -3.858971   1.311461 C.2        1 UNL1     0.3042
     55 O         1.753116   -3.934943   0.097922 O.2        1 UNL1     -0.2512
     56 C         2.848283   -4.85828   1.971275 C.3        1 UNL1     0.0332
     57 C         4.788565   -1.418089   2.779949 C.3        1 UNL1     -0.0567
     58 C         0.065837   2.291905   7.311304 C.3        1 UNL1     0.0210
     59 C         4.312404   -1.526177   4.334035 C.3        1 UNL1     0.0372
     60 C         1.911607   0.973688   5.473466 C.2        1 UNL1     -0.0208
     61 C         2.605573   2.107182   5.584581 C.2        1 UNL1     0.0882
     62 H         0.925551   4.203956   2.139821 H        1 UNL1     0.0365
     63 H         -0.162854   5.839596   2.696852 H        1 UNL1     0.0576
     64 H         -1.674074   7.04127   0.294984 H        1 UNL1     0.0615
     65 H         -1.641725   7.721456   3.343617 H        1 UNL1     0.0622
     66 H         2.259289   -0.984496   6.077428 H        1 UNL1     0.0645
     67 H         1.063766   -2.028985   4.670312 H        1 UNL1     0.0362
     68 H         2.838947   -2.646356   3.537369 H        1 UNL1     0.0741
     69 H         3.559402   -1.658168   1.1856 H        1 UNL1     0.0359
     70 H         3.859137   0.52618   0.81372 H        1 UNL1     0.0600
     71 H         2.019978   0.800731   -0.302894 H        1 UNL1     0.0348
     72 H         1.816418   2.748485   1.145162 H        1 UNL1     0.0602
     73 H         0.887584   0.948889   5.752771 H        1 UNL1     0.0628
     74 H         3.641032   2.230101   5.265282 H        1 UNL1     0.1022
     75 H         -3.90909   10.285456   1.074884 H        1 UNL1     0.0279
     76 H         -4.976167   8.938565   1.097852 H        1 UNL1     0.0279
     77 H         -4.9638   10.171816   2.422327 H        1 UNL1     0.0279
     78 H         -5.294217   7.87831   3.752818 H        1 UNL1     0.1553
     79 H         -4.786106   6.357952   2.588103 H        1 UNL1     0.1484
     80 H         -4.204571   2.615068   2.891628 H        1 UNL1     0.0317
     81 H         -4.708125   3.611817   4.249144 H        1 UNL1     0.0317
     82 H         -6.251157   4.935911   2.779611 H        1 UNL1     0.0428
     83 H         -6.597676   3.221   2.752974 H        1 UNL1     0.0428
     84 H         -4.365169   4.763494   -0.524184 H        1 UNL1     0.0428
     85 H         -4.860611   5.907106   0.67407 H        1 UNL1     0.0428
     86 H         -2.510928   5.078427   0.804974 H        1 UNL1     0.0317
     87 H         -2.98947   3.457654   1.020481 H        1 UNL1     0.0317
     88 H         -6.653638   3.481469   -0.720062 H        1 UNL1     0.0429
     89 H         -7.64008   3.384384   0.740671 H        1 UNL1     0.0429
     90 H         -7.51544   5.534499   -1.079492 H        1 UNL1     0.0308
     91 H         -9.240962   6.396962   0.20816 H        1 UNL1     0.0233
     92 H         -9.104669   4.84429   1.071948 H        1 UNL1     0.0233
     93 H         -8.346819   6.283436   1.719346 H        1 UNL1     0.0233
     94 H         -5.258408   5.816815   0.549701 H        1 UNL1     0.0233
     95 H         -5.954837   6.993344   -0.575064 H        1 UNL1     0.0233
     96 H         -6.418133   7.023893   1.142031 H        1 UNL1     0.0233
     97 H         -0.745237   6.054984   10.592972 H        1 UNL1     0.0280
     98 H         0.689041   5.292861   9.961147 H        1 UNL1     0.0280
     99 H         0.564896   7.077282   9.973869 H        1 UNL1     0.0280
     100 H         -3.235024   7.746345   8.989665 H        1 UNL1     0.2922
     101 H         2.222145   4.309601   -0.446476 H        1 UNL1     0.0236
     102 H         2.81524   5.003957   1.113065 H        1 UNL1     0.0236
     103 H         1.850822   5.941541   0.014734 H        1 UNL1     0.0236
     104 H         0.514298   3.572271   -0.944827 H        1 UNL1     0.2098
     105 H         1.005101   -1.152904   0.819373 H        1 UNL1     0.0234
     106 H         -0.066549   -0.018434   1.688649 H        1 UNL1     0.0234
     107 H         -0.0   0.0   0.0 H        1 UNL1     0.0234
     108 H         2.718074   2.065773   2.558492 H        1 UNL1     0.2098
     109 H         -0.603411   -1.053273   3.293328 H        1 UNL1     0.0234
     110 H         -0.344587   -0.034201   4.744983 H        1 UNL1     0.0234
     111 H         0.267657   0.463531   3.206717 H        1 UNL1     0.0234
     112 H         2.822635   -5.804021   1.421491 H        1 UNL1     0.0342
     113 H         3.868013   -4.487476   2.063467 H        1 UNL1     0.0342
     114 H         2.470069   -5.047833   2.985272 H        1 UNL1     0.0342
     115 H         5.614555   -1.26666   2.071432 H        1 UNL1     0.0234
     116 H         4.99638   -0.808641   3.661672 H        1 UNL1     0.0234
     117 H         4.935384   -2.476653   3.05532 H        1 UNL1     0.0234
     118 H         0.54884   1.311144   7.156961 H        1 UNL1     0.0309
     119 H         -0.140458   2.425631   8.377963 H        1 UNL1     0.0309
     120 H         -0.909252   2.172303   6.826532 H        1 UNL1     0.0309
     121 H         5.118141   -1.24747   3.655458 H        1 UNL1     0.0524
     122 H         4.751094   -2.146649   5.133162 H        1 UNL1     0.0524
     123 H         3.562776   -2.109081   3.806425 H        1 UNL1     0.0524
@<TRIPOS>BOND
     1     1     2    1
     2     1    42    1
     3     2     3    2
     4     3     4    1
     5     4     5    2
     6     5     7    1
     7     6    75    1
     8     6    76    1
     9     6    77    1
    10     7     9   am
    11     9    10    1
    12    10    11    2
    13    10    43    1
    14    11    14    1
    15    11    15    1
    16    12    13   ar
    17    12    27   ar
    18    12    43    1
    19    13    14    1
    20    13    30   ar
    21    14    17    2
    22    15    16    1
    23    16    17    1
    24    16    18    1
    25    16    22    1
    26    18    19    1
    27    19    20    1
    28    20    21    1
    29    21    22    1
    30    23    24    1
    31    23    88    1
    32    23    89    1
    33    24    25    1
    34    24    26    1
    35    24    90    1
    36    25    91    1
    37    25    92    1
    38    25    93    1
    39    26    94    1
    40    26    95    1
    41    26    96    1
    42    27    28   ar
    43    28    29   ar
    44    29    30   ar
    45    29    31    1
    46    30    33    1
    47    31    32    1
    48    32    33    1
    49    32    35    1
    50    34    97    1
    51    34    98    1
    52    34    99    1
    53    35    61    1
    54    36    37    1
    55    36    60    1
    56    37    38    1
    57    38    39    1
    58    39    40    1
    59    40    41    1
    60    41    42    1
    61    45   100    1
    62    47   101    1
    63    47   102    1
    64    47   103    1
    65    48   104    1
    66    49   105    1
    67    49   106    1
    68    49   107    1
    69    50   108    1
    70    51    59    1
    71    52   109    1
    72    52   110    1
    73    52   111    1
    74    53    54    1
    75    54    55    2
    76    54    56    1
    77    56   112    1
    78    56   113    1
    79    56   114    1
    80    57   115    1
    81    57   116    1
    82    57   117    1
    83    58   118    1
    84    58   119    1
    85    58   120    1
    86    59   121    1
    87    59   122    1
    88    59   123    1
    89    60    61    2
    90     1    47    1
    91     1    62    1
    92     2    63    1
    93     3    64    1
    94     4    65    1
    95     5     6    1
    96     7     8    2
    97     9    78    1
    98    15    79    1
    99    18    80    1
   100    18    81    1
   101    19    82    1
   102    19    83    1
   103    20    23    1
   104    21    84    1
   105    21    85    1
   106    22    86    1
   107    22    87    1
   108    27    45    1
   109    28    34    1
   110    32    58    1
   111    33    46    2
   112    36    51    1
   113    36    66    1
   114    37    52    1
   115    37    67    1
   116    38    53    1
   117    38    68    1
   118    42    48    1
   119    42    72    1
   120    43    44    2
   121    60    73    1
   122    61    74    1
   123    39    69    1
   124    39    57    1
   125    40    70    1
   126    40    50    1
   127    41    71    1
   128    41    49    1
