@<TRIPOS>MOLECULE
*****
 123 128 0 0 0
SMALL
GASTEIGER

@<TRIPOS>ATOM
     1 C         5.130917   1.841357   0.543241 C.3        1 UNL1     0.0009
     2 C         6.544952   2.709113   -0.284129 C.2        1 UNL1     -0.0787
     3 C         7.830863   2.664397   -0.947815 C.2        1 UNL1     -0.0649
     4 C         8.672825   3.942006   -1.672503 C.2        1 UNL1     -0.0542
     5 C         9.685984   4.28621   -2.601002 C.2        1 UNL1     0.0115
     6 C         10.834575   3.714548   -3.476938 C.3        1 UNL1     -0.0348
     7 C         9.738385   5.785025   -3.173536 C.2        1 UNL1     0.2441
     8 O         10.536343   6.622149   -2.774772 O.2        1 UNL1     -0.2702
     9 N         8.985243   5.995977   -4.341624 N.am        1 UNL1     -0.2772
     10 C         7.69074   6.336941   -4.023305 C.2        1 UNL1     0.1049
     11 C         6.873693   5.334319   -3.756089 C.2        1 UNL1     0.0801
     12 C         6.34128   7.871673   -2.580776 C.ar        1 UNL1     0.0753
     13 C         5.615218   6.711722   -2.161304 C.ar        1 UNL1     0.0305
     14 C         5.772817   5.42507   -2.835648 C.2        1 UNL1     0.0924
     15 N         7.036455   4.013548   -3.944769 N.pl3        1 UNL1     -0.3170
     16 C         5.784323   3.36973   -3.64826 C.3        1 UNL1     0.1275
     17 N         5.117145   4.283055   -2.649042 N.2        1 UNL1     -0.2557
     18 C         4.933263   3.431931   -4.912985 C.3        1 UNL1     0.0016
     19 C         5.711123   2.79647   -6.05435 C.3        1 UNL1     0.0026
     20 N         6.021442   1.41866   -5.698864 N.3        1 UNL1     -0.3018
     21 C         6.786146   1.253085   -4.46105 C.3        1 UNL1     0.0026
     22 C         5.98426   1.894429   -3.327229 C.3        1 UNL1     0.0016
     23 C         6.493075   0.638146   -6.825364 C.3        1 UNL1     0.0012
     24 C         5.348088   0.376589   -7.816499 C.3        1 UNL1     -0.0339
     25 C         5.694928   0.888488   -9.224234 C.3        1 UNL1     -0.0615
     26 C         4.998035   -1.101271   -7.829598 C.3        1 UNL1     -0.0615
     27 C         6.097396   9.120123   -2.013315 C.ar        1 UNL1     0.1347
     28 C         5.12829   9.339056   -1.050532 C.ar        1 UNL1     0.0342
     29 C         4.459861   8.174   -0.618082 C.ar        1 UNL1     0.1435
     30 C         4.718864   6.910893   -1.151653 C.ar        1 UNL1     0.0774
     31 O         3.413797   8.237029   0.234435 O.3        1 UNL1     -0.4436
     32 C         2.72972   6.986735   0.062165 C.3        1 UNL1     0.3143
     33 C         3.773633   6.036673   -0.489051 C.2        1 UNL1     0.2504
     34 C         4.639639   10.680855   -0.580537 C.3        1 UNL1     -0.0327
     35 O         2.379024   6.509724   1.367051 O.2        1 UNL1     -0.4528
     36 C         -0.803704   4.490987   0.916458 C.3        1 UNL1     0.0854
     37 C         -1.068875   3.24251   -0.010102 C.3        1 UNL1     0.0236
     38 C         -1.63337   1.946546   0.74724 C.3        1 UNL1     0.1131
     39 C         -0.8953   1.40817   2.038624 C.3        1 UNL1     0.0200
     40 C         0.769398   1.311432   2.081777 C.3        1 UNL1     0.0661
     41 C         1.754282   0.598304   0.898958 C.3        1 UNL1     0.0091
     42 C         3.451653   1.024415   0.348718 C.3        1 UNL1     0.0661
     43 C         7.299919   7.717914   -3.703108 C.2        1 UNL1     0.2131
     44 O         7.674527   8.643596   -4.399901 O.2        1 UNL1     -0.2851
     45 O         6.879447   10.189166   -2.445729 O.3        1 UNL1     -0.5056
     46 O         3.825327   4.831498   -0.385433 O.2        1 UNL1     -0.2836
     47 C         5.536363   1.391428   1.972633 C.3        1 UNL1     -0.0566
     48 O         3.942064   -0.374148   0.400046 O.3        1 UNL1     -0.3909
     49 C         0.930538   0.369055   -0.348594 C.3        1 UNL1     -0.0577
     50 O         1.331875   2.537469   2.503886 O.3        1 UNL1     -0.3910
     51 O         -0.925536   4.266204   2.302842 O.3        1 UNL1     -0.3753
     52 C         -0.017205   3.13948   -1.16263 C.3        1 UNL1     -0.0564
     53 O         -2.20234   0.91068   -0.177737 O.3        1 UNL1     -0.4608
     54 C         -2.366901   -0.416794   0.120024 C.2        1 UNL1     0.3042
     55 O         -1.663034   -1.357185   -0.246138 O.2        1 UNL1     -0.2512
     56 C         -3.519116   -0.687266   1.045203 C.3        1 UNL1     0.0332
     57 C         -1.639187   2.026568   3.312355 C.3        1 UNL1     -0.0567
     58 C         1.650381   7.224096   -1.0196 C.3        1 UNL1     0.0210
     59 C         -1.275744   5.418251   3.068353 C.3        1 UNL1     0.0372
     60 C         0.506432   5.164563   0.704324 C.2        1 UNL1     -0.0208
     61 C         1.403751   5.607066   1.586227 C.2        1 UNL1     0.0882
     62 H         4.625525   2.80864   0.651193 H        1 UNL1     0.0365
     63 H         6.247008   3.75183   -0.155909 H        1 UNL1     0.0576
     64 H         8.317812   1.71691   -1.189177 H        1 UNL1     0.0615
     65 H         8.157687   4.834347   -1.306657 H        1 UNL1     0.0622
     66 H         -1.569596   5.22177   0.620804 H        1 UNL1     0.0645
     67 H         -1.94177   3.539648   -0.616999 H        1 UNL1     0.0362
     68 H         -2.593972   2.346849   1.105743 H        1 UNL1     0.0741
     69 H         -1.196886   0.383451   2.2101 H        1 UNL1     0.0359
     70 H         0.898695   0.63494   2.948208 H        1 UNL1     0.0600
     71 H         1.827355   -0.430514   1.302878 H        1 UNL1     0.0348
     72 H         3.328757   1.486918   1.33882 H        1 UNL1     0.0602
     73 H         0.620954   5.388679   -0.327134 H        1 UNL1     0.0628
     74 H         1.389852   5.371789   2.650976 H        1 UNL1     0.1022
     75 H         10.860949   2.600143   -3.410307 H        1 UNL1     0.0279
     76 H         10.757436   3.883386   -4.548671 H        1 UNL1     0.0279
     77 H         11.831901   3.978205   -3.095456 H        1 UNL1     0.0279
     78 H         8.950627   5.136676   -4.886125 H        1 UNL1     0.1553
     79 H         7.715779   3.61972   -4.569551 H        1 UNL1     0.1484
     80 H         3.986631   2.908224   -4.733028 H        1 UNL1     0.0317
     81 H         4.676392   4.467324   -5.161238 H        1 UNL1     0.0317
     82 H         6.626076   3.360821   -6.287332 H        1 UNL1     0.0428
     83 H         5.086825   2.853097   -6.946592 H        1 UNL1     0.0428
     84 H         6.936867   0.207458   -4.175117 H        1 UNL1     0.0428
     85 H         7.805013   1.653987   -4.553271 H        1 UNL1     0.0428
     86 H         6.505682   1.639101   -2.423396 H        1 UNL1     0.0317
     87 H         5.019246   1.385033   -3.216055 H        1 UNL1     0.0317
     88 H         7.273872   1.215289   -7.337767 H        1 UNL1     0.0429
     89 H         6.952918   -0.301987   -6.4945 H        1 UNL1     0.0429
     90 H         4.446593   0.894859   -7.468769 H        1 UNL1     0.0308
     91 H         6.705613   0.589843   -9.518222 H        1 UNL1     0.0233
     92 H         4.980991   0.510179   -9.959615 H        1 UNL1     0.0233
     93 H         5.653828   1.982313   -9.292745 H        1 UNL1     0.0233
     94 H         4.402931   -1.340606   -8.717521 H        1 UNL1     0.0233
     95 H         5.911634   -1.701351   -7.864287 H        1 UNL1     0.0233
     96 H         4.42396   -1.383258   -6.94253 H        1 UNL1     0.0233
     97 H         3.791887   10.592934   0.09238 H        1 UNL1     0.0280
     98 H         5.409944   11.22987   -0.02334 H        1 UNL1     0.0280
     99 H         4.330496   11.285815   -1.448609 H        1 UNL1     0.0280
     100 H         6.393236   10.959198   -2.682943 H        1 UNL1     0.2922
     101 H         4.659411   1.0236   2.504906 H        1 UNL1     0.0236
     102 H         6.060299   2.164995   2.533051 H        1 UNL1     0.0236
     103 H         6.232573   0.536326   1.955768 H        1 UNL1     0.0236
     104 H         4.275634   -0.536751   1.304071 H        1 UNL1     0.2098
     105 H         0.735774   1.26708   -0.92948 H        1 UNL1     0.0234
     106 H         1.296683   -0.427632   -0.996015 H        1 UNL1     0.0234
     107 H         0.0   -0.0   0.0 H        1 UNL1     0.0234
     108 H         1.169986   3.190037   1.795568 H        1 UNL1     0.2098
     109 H         1.010697   3.06053   -0.781976 H        1 UNL1     0.0234
     110 H         -0.216212   2.313833   -1.854329 H        1 UNL1     0.0234
     111 H         -0.02944   4.031765   -1.802649 H        1 UNL1     0.0234
     112 H         -3.58172   -1.758726   1.258281 H        1 UNL1     0.0342
     113 H         -3.449771   -0.109287   1.965516 H        1 UNL1     0.0342
     114 H         -4.445819   -0.39067   0.534893 H        1 UNL1     0.0342
     115 H         -2.722401   1.845399   3.280523 H        1 UNL1     0.0234
     116 H         -1.271027   1.648744   4.268261 H        1 UNL1     0.0234
     117 H         -1.608484   3.129189   3.347363 H        1 UNL1     0.0234
     118 H         0.732367   7.670095   -0.59848 H        1 UNL1     0.0309
     119 H         2.002676   7.845668   -1.848901 H        1 UNL1     0.0309
     120 H         1.294271   6.291093   -1.469931 H        1 UNL1     0.0309
     121 H         -0.901784   5.26759   4.080683 H        1 UNL1     0.0524
     122 H         -0.811013   6.338214   2.676268 H        1 UNL1     0.0524
     123 H         -2.354376   5.546504   3.082429 H        1 UNL1     0.0524
@<TRIPOS>BOND
     1     1     2    1
     2     1    42    1
     3     2     3    2
     4     3     4    1
     5     4     5    2
     6     5     7    1
     7     6    75    1
     8     6    76    1
     9     6    77    1
    10     7     9   am
    11     9    10    1
    12    10    11    2
    13    10    43    1
    14    11    14    1
    15    11    15    1
    16    12    13   ar
    17    12    27   ar
    18    12    43    1
    19    13    14    1
    20    13    30   ar
    21    14    17    2
    22    15    16    1
    23    16    17    1
    24    16    18    1
    25    16    22    1
    26    18    19    1
    27    19    20    1
    28    20    21    1
    29    21    22    1
    30    23    24    1
    31    23    88    1
    32    23    89    1
    33    24    25    1
    34    24    26    1
    35    24    90    1
    36    25    91    1
    37    25    92    1
    38    25    93    1
    39    26    94    1
    40    26    95    1
    41    26    96    1
    42    27    28   ar
    43    28    29   ar
    44    29    30   ar
    45    29    31    1
    46    30    33    1
    47    31    32    1
    48    32    33    1
    49    32    35    1
    50    34    97    1
    51    34    98    1
    52    34    99    1
    53    35    61    1
    54    36    37    1
    55    36    60    1
    56    37    38    1
    57    38    39    1
    58    39    40    1
    59    40    41    1
    60    41    42    1
    61    45   100    1
    62    47   101    1
    63    47   102    1
    64    47   103    1
    65    48   104    1
    66    49   105    1
    67    49   106    1
    68    49   107    1
    69    50   108    1
    70    51    59    1
    71    52   109    1
    72    52   110    1
    73    52   111    1
    74    53    54    1
    75    54    55    2
    76    54    56    1
    77    56   112    1
    78    56   113    1
    79    56   114    1
    80    57   115    1
    81    57   116    1
    82    57   117    1
    83    58   118    1
    84    58   119    1
    85    58   120    1
    86    59   121    1
    87    59   122    1
    88    59   123    1
    89    60    61    2
    90     1    47    1
    91     1    62    1
    92     2    63    1
    93     3    64    1
    94     4    65    1
    95     5     6    1
    96     7     8    2
    97     9    78    1
    98    15    79    1
    99    18    80    1
   100    18    81    1
   101    19    82    1
   102    19    83    1
   103    20    23    1
   104    21    84    1
   105    21    85    1
   106    22    86    1
   107    22    87    1
   108    27    45    1
   109    28    34    1
   110    32    58    1
   111    33    46    2
   112    36    51    1
   113    36    66    1
   114    37    52    1
   115    37    67    1
   116    38    53    1
   117    38    68    1
   118    42    48    1
   119    42    72    1
   120    43    44    2
   121    60    73    1
   122    61    74    1
   123    39    69    1
   124    39    57    1
   125    40    70    1
   126    40    50    1
   127    41    71    1
   128    41    49    1
