@<TRIPOS>MOLECULE
*****
 123 128 0 0 0
SMALL
GASTEIGER

@<TRIPOS>ATOM
     1 C         4.333882   2.385769   -2.350566 C.3        1 UNL1     0.0009
     2 C         5.847202   2.137648   -3.39236 C.2        1 UNL1     -0.0787
     3 C         7.282423   1.985479   -3.506518 C.2        1 UNL1     -0.0649
     4 C         8.183987   1.629922   -4.894725 C.2        1 UNL1     -0.0542
     5 C         9.419289   1.136308   -5.382016 C.2        1 UNL1     0.0115
     6 C         10.861063   0.730728   -4.969564 C.3        1 UNL1     -0.0348
     7 C         9.510333   0.638394   -6.905427 C.2        1 UNL1     0.2441
     8 O         10.015072   1.308783   -7.795563 O.2        1 UNL1     -0.2702
     9 N         9.209543   -0.720989   -7.099734 N.am        1 UNL1     -0.2772
     10 C         7.858276   -0.890466   -7.296398 C.2        1 UNL1     0.1049
     11 C         7.114356   -0.949083   -6.206733 C.2        1 UNL1     0.0801
     12 C         5.921547   -0.019251   -8.618291 C.ar        1 UNL1     0.0753
     13 C         5.224335   0.095284   -7.373548 C.ar        1 UNL1     0.0305
     14 C         5.753234   -0.490019   -6.143614 C.2        1 UNL1     0.0924
     15 N         7.477077   -1.080373   -4.919207 N.pl3        1 UNL1     -0.3170
     16 C         6.280308   -1.26565   -4.142244 C.3        1 UNL1     0.1275
     17 N         5.203052   -0.566711   -4.935167 N.2        1 UNL1     -0.2557
     18 C         5.939759   -2.752253   -4.183949 C.3        1 UNL1     0.0016
     19 C         7.140408   -3.540404   -3.685101 C.3        1 UNL1     0.0026
     20 N         7.450363   -3.111743   -2.328191 N.3        1 UNL1     -0.3018
     21 C         7.731841   -1.682697   -2.176643 C.3        1 UNL1     0.0026
     22 C         6.510998   -0.91023   -2.679368 C.3        1 UNL1     0.0016
     23 C         8.37771   -3.998784   -1.654523 C.3        1 UNL1     0.0012
     24 C         7.70038   -5.339117   -1.328195 C.3        1 UNL1     -0.0339
     25 C         7.98666   -6.392266   -2.411236 C.3        1 UNL1     -0.0615
     26 C         8.131743   -5.819513   0.046551 C.3        1 UNL1     -0.0615
     27 C         5.355299   0.434726   -9.80715 C.ar        1 UNL1     0.1347
     28 C         4.087078   0.982481   -9.882198 C.ar        1 UNL1     0.0342
     29 C         3.439162   1.129969   -8.637362 C.ar        1 UNL1     0.1435
     30 C         4.00883   0.712894   -7.433723 C.ar        1 UNL1     0.0774
     31 O         2.156289   1.545334   -8.555422 O.3        1 UNL1     -0.4436
     32 C         1.720671   1.122758   -7.254445 C.3        1 UNL1     0.3143
     33 C         2.98991   0.97757   -6.439482 C.2        1 UNL1     0.2504
     34 C         3.318885   1.257838   -11.144797 C.3        1 UNL1     -0.0327
     35 O         0.978365   2.206039   -6.68109 O.2        1 UNL1     -0.4528
     36 C         -1.588801   0.608801   -4.386188 C.3        1 UNL1     0.0854
     37 C         -1.365122   -0.364524   -3.165479 C.3        1 UNL1     0.0236
     38 C         -2.019306   0.12196   -1.784494 C.3        1 UNL1     0.1131
     39 C         -1.741123   1.587144   -1.257123 C.3        1 UNL1     0.0200
     40 C         -0.20345   2.230474   -1.321361 C.3        1 UNL1     0.0661
     41 C         1.212425   1.47798   -0.767593 C.3        1 UNL1     0.0091
     42 C         2.936791   1.58604   -1.384268 C.3        1 UNL1     0.0661
     43 C         7.230347   -0.718745   -8.614947 C.2        1 UNL1     0.2131
     44 O         7.727166   -1.221813   -9.606325 O.2        1 UNL1     -0.2851
     45 O         6.118964   0.327451   -10.967644 O.3        1 UNL1     -0.5056
     46 O         3.131968   1.079591   -5.241457 O.2        1 UNL1     -0.2836
     47 C         4.244544   3.859792   -1.87176 C.3        1 UNL1     -0.0566
     48 O         3.525297   1.796437   -0.039459 O.3        1 UNL1     -0.3909
     49 C         0.922793   0.01408   -0.521415 C.3        1 UNL1     -0.0577
     50 O         0.032266   2.841435   -2.573913 O.3        1 UNL1     -0.3910
     51 O         -2.175842   1.853863   -4.081829 O.3        1 UNL1     -0.3753
     52 C         0.035218   -1.057829   -3.223145 C.3        1 UNL1     -0.0564
     53 O         -2.100905   -0.957807   -0.745373 O.3        1 UNL1     -0.4608
     54 C         -2.236197   -0.754973   0.603139 C.2        1 UNL1     0.3042
     55 O         -1.403812   -0.983313   1.47997 O.2        1 UNL1     -0.2512
     56 C         -3.547086   -0.130894   0.988897 C.3        1 UNL1     0.0332
     57 C         -2.956039   2.510768   -1.735736 C.3        1 UNL1     -0.0567
     58 C         1.083671   -0.274294   -7.438855 C.3        1 UNL1     0.0210
     59 C         -2.934144   2.434181   -5.142053 C.3        1 UNL1     0.0372
     60 C         -0.371875   0.894074   -5.194192 C.2        1 UNL1     -0.0208
     61 C         0.094198   2.046338   -5.67773 C.2        1 UNL1     0.0882
     62 H         3.721236   2.313588   -3.257299 H        1 UNL1     0.0365
     63 H         5.411278   2.160476   -4.393319 H        1 UNL1     0.0576
     64 H         7.923806   1.926879   -2.624304 H        1 UNL1     0.0615
     65 H         7.477723   1.79367   -5.713175 H        1 UNL1     0.0622
     66 H         -2.27189   0.063408   -5.052508 H        1 UNL1     0.0645
     67 H         -1.988132   -1.243533   -3.405817 H        1 UNL1     0.0362
     68 H         -3.082076   0.111764   -2.07074 H        1 UNL1     0.0741
     69 H         -1.97053   1.626161   -0.200592 H        1 UNL1     0.0359
     70 H         -0.321499   3.077237   -0.618426 H        1 UNL1     0.0600
     71 H         1.247051   1.86951   0.268005 H        1 UNL1     0.0348
     72 H         2.416352   2.46906   -1.782683 H        1 UNL1     0.0602
     73 H         0.080805   -0.022947   -5.479501 H        1 UNL1     0.0628
     74 H         -0.275992   3.030775   -5.389494 H        1 UNL1     0.1022
     75 H         11.007154   0.865961   -3.870745 H        1 UNL1     0.0279
     76 H         11.131983   -0.312558   -5.115257 H        1 UNL1     0.0279
     77 H         11.626079   1.408972   -5.375073 H        1 UNL1     0.0279
     78 H         9.467015   -1.250363   -6.269344 H        1 UNL1     0.1553
     79 H         8.374261   -1.420298   -4.625192 H        1 UNL1     0.1484
     80 H         5.054914   -2.933924   -3.562007 H        1 UNL1     0.0317
     81 H         5.678104   -3.065377   -5.200384 H        1 UNL1     0.0317
     82 H         8.010536   -3.419187   -4.34699 H        1 UNL1     0.0428
     83 H         6.876628   -4.597707   -3.724859 H        1 UNL1     0.0428
     84 H         7.882692   -1.373104   -1.137794 H        1 UNL1     0.0428
     85 H         8.665459   -1.394414   -2.679204 H        1 UNL1     0.0428
     86 H         6.696945   0.118345   -2.431484 H        1 UNL1     0.0317
     87 H         5.632299   -1.162503   -2.07328 H        1 UNL1     0.0317
     88 H         9.221085   -4.188998   -2.331155 H        1 UNL1     0.0429
     89 H         8.789716   -3.532781   -0.750163 H        1 UNL1     0.0429
     90 H         6.616177   -5.187932   -1.266075 H        1 UNL1     0.0308
     91 H         9.061692   -6.554821   -2.533644 H        1 UNL1     0.0233
     92 H         7.506313   -7.341708   -2.163372 H        1 UNL1     0.0233
     93 H         7.595491   -6.098773   -3.39291 H        1 UNL1     0.0233
     94 H         7.806952   -6.85365   0.20437 H        1 UNL1     0.0233
     95 H         9.222079   -5.792662   0.126602 H        1 UNL1     0.0233
     96 H         7.704246   -5.198344   0.838615 H        1 UNL1     0.0233
     97 H         2.328825   1.654687   -10.941026 H        1 UNL1     0.0280
     98 H         3.817085   2.003541   -11.778028 H        1 UNL1     0.0280
     99 H         3.205311   0.323672   -11.718844 H        1 UNL1     0.0280
     100 H         6.971003   0.723348   -10.913638 H        1 UNL1     0.2922
     101 H         3.331162   4.004346   -1.295137 H        1 UNL1     0.0236
     102 H         4.333844   4.580466   -2.683941 H        1 UNL1     0.0236
     103 H         5.059247   4.119054   -1.175172 H        1 UNL1     0.0236
     104 H         3.618945   2.759958   0.094065 H        1 UNL1     0.2098
     105 H         0.803389   -0.578268   -1.425118 H        1 UNL1     0.0234
     106 H         1.612833   -0.477626   0.164149 H        1 UNL1     0.0234
     107 H         0.0   0.0   0.0 H        1 UNL1     0.0234
     108 H         0.000371   2.137848   -3.25046 H        1 UNL1     0.2098
     109 H         0.859892   -0.331623   -3.207376 H        1 UNL1     0.0234
     110 H         0.182598   -1.796942   -2.428327 H        1 UNL1     0.0234
     111 H         0.163906   -1.633656   -4.149325 H        1 UNL1     0.0234
     112 H         -3.588926   0.006532   2.073659 H        1 UNL1     0.0342
     113 H         -3.72158   0.809833   0.46887 H        1 UNL1     0.0342
     114 H         -4.352719   -0.822206   0.705688 H        1 UNL1     0.0342
     115 H         -3.916836   2.163841   -1.331139 H        1 UNL1     0.0234
     116 H         -2.846841   3.563039   -1.465826 H        1 UNL1     0.0234
     117 H         -3.14947   2.455823   -2.820866 H        1 UNL1     0.0234
     118 H         0.034288   -0.210244   -7.776049 H        1 UNL1     0.0309
     119 H         1.643162   -0.913895   -8.128843 H        1 UNL1     0.0309
     120 H         1.013174   -0.831602   -6.498352 H        1 UNL1     0.0309
     121 H         -2.253902   2.613276   -5.974249 H        1 UNL1     0.0524
     122 H         -3.730693   1.762445   -5.503049 H        1 UNL1     0.0524
     123 H         -3.381869   3.368737   -4.816106 H        1 UNL1     0.0524
@<TRIPOS>BOND
     1     1     2    1
     2     1    42    1
     3     2     3    2
     4     3     4    1
     5     4     5    2
     6     5     7    1
     7     6    75    1
     8     6    76    1
     9     6    77    1
    10     7     9   am
    11     9    10    1
    12    10    11    2
    13    10    43    1
    14    11    14    1
    15    11    15    1
    16    12    13   ar
    17    12    27   ar
    18    12    43    1
    19    13    14    1
    20    13    30   ar
    21    14    17    2
    22    15    16    1
    23    16    17    1
    24    16    18    1
    25    16    22    1
    26    18    19    1
    27    19    20    1
    28    20    21    1
    29    21    22    1
    30    23    24    1
    31    23    88    1
    32    23    89    1
    33    24    25    1
    34    24    26    1
    35    24    90    1
    36    25    91    1
    37    25    92    1
    38    25    93    1
    39    26    94    1
    40    26    95    1
    41    26    96    1
    42    27    28   ar
    43    28    29   ar
    44    29    30   ar
    45    29    31    1
    46    30    33    1
    47    31    32    1
    48    32    33    1
    49    32    35    1
    50    34    97    1
    51    34    98    1
    52    34    99    1
    53    35    61    1
    54    36    37    1
    55    36    60    1
    56    37    38    1
    57    38    39    1
    58    39    40    1
    59    40    41    1
    60    41    42    1
    61    45   100    1
    62    47   101    1
    63    47   102    1
    64    47   103    1
    65    48   104    1
    66    49   105    1
    67    49   106    1
    68    49   107    1
    69    50   108    1
    70    51    59    1
    71    52   109    1
    72    52   110    1
    73    52   111    1
    74    53    54    1
    75    54    55    2
    76    54    56    1
    77    56   112    1
    78    56   113    1
    79    56   114    1
    80    57   115    1
    81    57   116    1
    82    57   117    1
    83    58   118    1
    84    58   119    1
    85    58   120    1
    86    59   121    1
    87    59   122    1
    88    59   123    1
    89    60    61    2
    90     1    47    1
    91     1    62    1
    92     2    63    1
    93     3    64    1
    94     4    65    1
    95     5     6    1
    96     7     8    2
    97     9    78    1
    98    15    79    1
    99    18    80    1
   100    18    81    1
   101    19    82    1
   102    19    83    1
   103    20    23    1
   104    21    84    1
   105    21    85    1
   106    22    86    1
   107    22    87    1
   108    27    45    1
   109    28    34    1
   110    32    58    1
   111    33    46    2
   112    36    51    1
   113    36    66    1
   114    37    52    1
   115    37    67    1
   116    38    53    1
   117    38    68    1
   118    42    48    1
   119    42    72    1
   120    43    44    2
   121    60    73    1
   122    61    74    1
   123    39    69    1
   124    39    57    1
   125    40    70    1
   126    40    50    1
   127    41    71    1
   128    41    49    1
