@<TRIPOS>MOLECULE
*****
 123 128 0 0 0
SMALL
GASTEIGER

@<TRIPOS>ATOM
     1 C         5.163193   1.77108   0.451652 C.3        1 UNL1     0.0009
     2 C         6.592792   2.575359   -0.412303 C.2        1 UNL1     -0.0787
     3 C         7.871741   2.476326   -1.083518 C.2        1 UNL1     -0.0649
     4 C         8.741033   3.708385   -1.853401 C.2        1 UNL1     -0.0542
     5 C         9.755393   3.997022   -2.799361 C.2        1 UNL1     0.0115
     6 C         10.88158   3.368584   -3.665439 C.3        1 UNL1     -0.0348
     7 C         9.842429   5.475634   -3.418329 C.2        1 UNL1     0.2441
     8 O         10.665193   6.303245   -3.051388 O.2        1 UNL1     -0.2702
     9 N         9.085745   5.670419   -4.586935 N.am        1 UNL1     -0.2772
     10 C         7.8032   6.055073   -4.27001 C.2        1 UNL1     0.1049
     11 C         6.962351   5.083063   -3.966051 C.2        1 UNL1     0.0801
     12 C         6.505964   7.668503   -2.86596 C.ar        1 UNL1     0.0753
     13 C         5.753166   6.541568   -2.405612 C.ar        1 UNL1     0.0305
     14 C         5.871628   5.231093   -3.040963 C.2        1 UNL1     0.0924
     15 N         7.088966   3.753281   -4.114967 N.pl3        1 UNL1     -0.3170
     16 C         5.822822   3.152173   -3.789695 C.3        1 UNL1     0.1275
     17 N         5.187799   4.113066   -2.814424 N.2        1 UNL1     -0.2557
     18 C         4.96359   3.197946   -5.049586 C.3        1 UNL1     0.0016
     19 C         5.71539   2.507398   -6.17632 C.3        1 UNL1     0.0026
     20 N         5.992369   1.133444   -5.780641 N.3        1 UNL1     -0.3018
     21 C         6.762357   0.985835   -4.543831 C.3        1 UNL1     0.0026
     22 C         5.986633   1.682665   -3.424646 C.3        1 UNL1     0.0016
     23 C         6.43438   0.306506   -6.88583 C.3        1 UNL1     0.0012
     24 C         5.275044   0.044957   -7.860145 C.3        1 UNL1     -0.0339
     25 C         5.360846   0.957899   -9.094337 C.3        1 UNL1     -0.0615
     26 C         5.244399   -1.422317   -8.251232 C.3        1 UNL1     -0.0615
     27 C         6.299394   8.939803   -2.335635 C.ar        1 UNL1     0.1347
     28 C         5.344086   9.21373   -1.373138 C.ar        1 UNL1     0.0342
     29 C         4.648869   8.080571   -0.900074 C.ar        1 UNL1     0.1435
     30 C         4.87044   6.795268   -1.396182 C.ar        1 UNL1     0.0774
     31 O         3.61167   8.197367   -0.042413 O.3        1 UNL1     -0.4436
     32 C         2.89374   6.960875   -0.171016 C.3        1 UNL1     0.3143
     33 C         3.90798   5.967087   -0.700084 C.2        1 UNL1     0.2504
     34 C         4.894504   10.581772   -0.941355 C.3        1 UNL1     -0.0327
     35 O         2.54113   6.533606   1.150483 O.2        1 UNL1     -0.4528
     36 C         -0.696856   4.586746   0.785427 C.3        1 UNL1     0.0854
     37 C         -1.002025   3.317833   -0.100154 C.3        1 UNL1     0.0236
     38 C         -1.594174   2.061109   0.700938 C.3        1 UNL1     0.1131
     39 C         -0.86014   1.543354   2.00301 C.3        1 UNL1     0.0200
     40 C         0.801747   1.404053   2.037162 C.3        1 UNL1     0.0661
     41 C         1.758129   0.62916   0.869907 C.3        1 UNL1     0.0091
     42 C         3.461616   0.993186   0.294563 C.3        1 UNL1     0.0661
     43 C         7.451237   7.455072   -3.989866 C.2        1 UNL1     0.2131
     44 O         7.844361   8.348693   -4.717624 O.2        1 UNL1     -0.2851
     45 O         7.105677   9.974028   -2.806511 O.3        1 UNL1     -0.5056
     46 O         3.928935   4.76472   -0.559625 O.2        1 UNL1     -0.2836
     47 C         5.568146   1.354726   1.891319 C.3        1 UNL1     -0.0566
     48 O         3.915642   -0.415605   0.385583 O.3        1 UNL1     -0.3909
     49 C         0.918709   0.383529   -0.364003 C.3        1 UNL1     -0.0577
     50 O         1.399486   2.627195   2.417103 O.3        1 UNL1     -0.3910
     51 O         -0.813434   4.407957   2.178939 O.3        1 UNL1     -0.3753
     52 C         0.037332   3.151703   -1.256479 C.3        1 UNL1     -0.0564
     53 O         -2.197449   1.012704   -0.187451 O.3        1 UNL1     -0.4608
     54 C         -2.394315   -0.300186   0.15239 C.2        1 UNL1     0.3042
     55 O         -1.718259   -1.269645   -0.189571 O.2        1 UNL1     -0.2512
     56 C         -3.545776   -0.511581   1.093752 C.3        1 UNL1     0.0332
     57 C         -1.577367   2.220022   3.262327 C.3        1 UNL1     -0.0567
     58 C         1.812363   7.193315   -1.251814 C.3        1 UNL1     0.0210
     59 C         -1.127227   5.591826   2.91096 C.3        1 UNL1     0.0372
     60 C         0.628723   5.218648   0.543151 C.2        1 UNL1     -0.0208
     61 C         1.544347   5.664182   1.404474 C.2        1 UNL1     0.0882
     62 H         4.684175   2.754234   0.533273 H        1 UNL1     0.0365
     63 H         6.323283   3.629028   -0.314247 H        1 UNL1     0.0576
     64 H         8.331773   1.509341   -1.298964 H        1 UNL1     0.0615
     65 H         8.252376   4.624839   -1.511627 H        1 UNL1     0.0622
     66 H         -1.445697   5.328075   0.472833 H        1 UNL1     0.0645
     67 H         -1.87167   3.619136   -0.709656 H        1 UNL1     0.0362
     68 H         -2.541068   2.497468   1.05379 H        1 UNL1     0.0741
     69 H         -1.187066   0.532709   2.208255 H        1 UNL1     0.0359
     70 H         0.92022   0.751319   2.923144 H        1 UNL1     0.0600
     71 H         1.807475   -0.388334   1.30491 H        1 UNL1     0.0348
     72 H         3.358796   1.488973   1.270749 H        1 UNL1     0.0602
     73 H         0.740816   5.407868   -0.49554 H        1 UNL1     0.0628
     74 H         1.532814   5.462175   2.476061 H        1 UNL1     0.1022
     75 H         10.879305   2.256444   -3.564573 H        1 UNL1     0.0279
     76 H         10.800313   3.506395   -4.741298 H        1 UNL1     0.0279
     77 H         11.888486   3.617402   -3.299474 H        1 UNL1     0.0279
     78 H         9.024289   4.796011   -5.104342 H        1 UNL1     0.1553
     79 H         7.752727   3.32264   -4.732141 H        1 UNL1     0.1484
     80 H         4.005043   2.705201   -4.846718 H        1 UNL1     0.0317
     81 H         4.731933   4.231647   -5.327883 H        1 UNL1     0.0317
     82 H         6.64291   3.039962   -6.433214 H        1 UNL1     0.0428
     83 H         5.085668   2.553057   -7.065374 H        1 UNL1     0.0428
     84 H         6.887938   -0.05413   -4.226794 H        1 UNL1     0.0428
     85 H         7.790599   1.356664   -4.655729 H        1 UNL1     0.0428
     86 H         6.508409   1.441541   -2.517123 H        1 UNL1     0.0317
     87 H         5.009536   1.20259   -3.290837 H        1 UNL1     0.0317
     88 H         7.225892   0.846811   -7.421436 H        1 UNL1     0.0429
     89 H         6.872087   -0.634835   -6.529371 H        1 UNL1     0.0429
     90 H         4.324971   0.238365   -7.348121 H        1 UNL1     0.0308
     91 H         6.314061   0.832207   -9.616531 H        1 UNL1     0.0233
     92 H         4.542193   0.749018   -9.787003 H        1 UNL1     0.0233
     93 H         5.278086   2.020209   -8.834565 H        1 UNL1     0.0233
     94 H         4.585732   -1.569573   -9.113966 H        1 UNL1     0.0233
     95 H         6.24751   -1.755124   -8.532249 H        1 UNL1     0.0233
     96 H         4.882544   -2.046811   -7.429626 H        1 UNL1     0.0233
     97 H         4.050153   10.536988   -0.259963 H        1 UNL1     0.0280
     98 H         5.683351   11.12711   -0.406955 H        1 UNL1     0.0280
     99 H         4.594367   11.167732   -1.825473 H        1 UNL1     0.0280
     100 H         6.637907   10.748983   -3.063919 H        1 UNL1     0.2922
     101 H         4.686154   1.026713   2.441004 H        1 UNL1     0.0236
     102 H         6.116621   2.131035   2.423768 H        1 UNL1     0.0236
     103 H         6.241576   0.481419   1.895897 H        1 UNL1     0.0236
     104 H         4.252065   -0.559111   1.291782 H        1 UNL1     0.2098
     105 H         0.700019   1.276897   -0.943555 H        1 UNL1     0.0234
     106 H         1.287695   -0.408498   -1.015516 H        1 UNL1     0.0234
     107 H         0.0   -0.0   0.0 H        1 UNL1     0.0234
     108 H         1.249073   3.261743   1.690127 H        1 UNL1     0.2098
     109 H         1.065827   3.057364   -0.880967 H        1 UNL1     0.0234
     110 H         -0.188749   2.31074   -1.920868 H        1 UNL1     0.0234
     111 H         0.043337   4.023916   -1.923678 H        1 UNL1     0.0234
     112 H         -3.6347   -1.573961   1.340303 H        1 UNL1     0.0342
     113 H         -3.453963   0.092365   1.99523 H        1 UNL1     0.0342
     114 H         -4.468451   -0.20643   0.581192 H        1 UNL1     0.0342
     115 H         -2.664463   2.061335   3.247156 H        1 UNL1     0.0234
     116 H         -1.207365   1.866582   4.22681 H        1 UNL1     0.0234
     117 H         -1.522859   3.322276   3.259822 H        1 UNL1     0.0234
     118 H         0.909738   7.676132   -0.838096 H        1 UNL1     0.0309
     119 H         2.174161   7.779595   -2.10245 H        1 UNL1     0.0309
     120 H         1.428359   6.256649   -1.670508 H        1 UNL1     0.0309
     121 H         -0.74925   5.462511   3.924749 H        1 UNL1     0.0524
     122 H         -0.641725   6.486713   2.487284 H        1 UNL1     0.0524
     123 H         -2.201985   5.748894   2.928819 H        1 UNL1     0.0524
@<TRIPOS>BOND
     1     1     2    1
     2     1    42    1
     3     2     3    2
     4     3     4    1
     5     4     5    2
     6     5     7    1
     7     6    75    1
     8     6    76    1
     9     6    77    1
    10     7     9   am
    11     9    10    1
    12    10    11    2
    13    10    43    1
    14    11    14    1
    15    11    15    1
    16    12    13   ar
    17    12    27   ar
    18    12    43    1
    19    13    14    1
    20    13    30   ar
    21    14    17    2
    22    15    16    1
    23    16    17    1
    24    16    18    1
    25    16    22    1
    26    18    19    1
    27    19    20    1
    28    20    21    1
    29    21    22    1
    30    23    24    1
    31    23    88    1
    32    23    89    1
    33    24    25    1
    34    24    26    1
    35    24    90    1
    36    25    91    1
    37    25    92    1
    38    25    93    1
    39    26    94    1
    40    26    95    1
    41    26    96    1
    42    27    28   ar
    43    28    29   ar
    44    29    30   ar
    45    29    31    1
    46    30    33    1
    47    31    32    1
    48    32    33    1
    49    32    35    1
    50    34    97    1
    51    34    98    1
    52    34    99    1
    53    35    61    1
    54    36    37    1
    55    36    60    1
    56    37    38    1
    57    38    39    1
    58    39    40    1
    59    40    41    1
    60    41    42    1
    61    45   100    1
    62    47   101    1
    63    47   102    1
    64    47   103    1
    65    48   104    1
    66    49   105    1
    67    49   106    1
    68    49   107    1
    69    50   108    1
    70    51    59    1
    71    52   109    1
    72    52   110    1
    73    52   111    1
    74    53    54    1
    75    54    55    2
    76    54    56    1
    77    56   112    1
    78    56   113    1
    79    56   114    1
    80    57   115    1
    81    57   116    1
    82    57   117    1
    83    58   118    1
    84    58   119    1
    85    58   120    1
    86    59   121    1
    87    59   122    1
    88    59   123    1
    89    60    61    2
    90     1    47    1
    91     1    62    1
    92     2    63    1
    93     3    64    1
    94     4    65    1
    95     5     6    1
    96     7     8    2
    97     9    78    1
    98    15    79    1
    99    18    80    1
   100    18    81    1
   101    19    82    1
   102    19    83    1
   103    20    23    1
   104    21    84    1
   105    21    85    1
   106    22    86    1
   107    22    87    1
   108    27    45    1
   109    28    34    1
   110    32    58    1
   111    33    46    2
   112    36    51    1
   113    36    66    1
   114    37    52    1
   115    37    67    1
   116    38    53    1
   117    38    68    1
   118    42    48    1
   119    42    72    1
   120    43    44    2
   121    60    73    1
   122    61    74    1
   123    39    69    1
   124    39    57    1
   125    40    70    1
   126    40    50    1
   127    41    71    1
   128    41    49    1
