@<TRIPOS>MOLECULE
*****
 123 128 0 0 0
SMALL
GASTEIGER

@<TRIPOS>ATOM
     1 C         5.164451   1.764427   0.463151 C.3        1 UNL1     0.0009
     2 C         6.593941   2.575137   -0.394955 C.2        1 UNL1     -0.0787
     3 C         7.872406   2.481034   -1.067799 C.2        1 UNL1     -0.0649
     4 C         8.741884   3.719025   -1.827894 C.2        1 UNL1     -0.0542
     5 C         9.755798   4.015024   -2.772055 C.2        1 UNL1     0.0115
     6 C         10.881087   3.393249   -3.644089 C.3        1 UNL1     -0.0348
     7 C         9.843251   5.498721   -3.378673 C.2        1 UNL1     0.2441
     8 O         10.666703   6.322782   -3.005342 O.2        1 UNL1     -0.2702
     9 N         9.085928   5.703698   -4.54512 N.am        1 UNL1     -0.2772
     10 C         7.803797   6.086382   -4.22416 C.2        1 UNL1     0.1049
     11 C         6.962609   5.112317   -3.927813 C.2        1 UNL1     0.0801
     12 C         6.508344   7.688701   -2.805812 C.ar        1 UNL1     0.0753
     13 C         5.75522   6.558359   -2.354435 C.ar        1 UNL1     0.0305
     14 C         5.872558   5.253187   -3.000817 C.2        1 UNL1     0.0924
     15 N         7.088399   3.78376   -4.087942 N.pl3        1 UNL1     -0.3170
     16 C         5.822133   3.180637   -3.766902 C.3        1 UNL1     0.1275
     17 N         5.18826   4.133673   -2.78321 N.2        1 UNL1     -0.2557
     18 C         4.962122   3.237429   -5.025814 C.3        1 UNL1     0.0016
     19 C         5.712823   2.555934   -6.158775 C.3        1 UNL1     0.0026
     20 N         5.989301   1.178564   -5.774795 N.3        1 UNL1     -0.3018
     21 C         6.759997   1.020182   -4.53976 C.3        1 UNL1     0.0026
     22 C         5.98537   1.708035   -3.414279 C.3        1 UNL1     0.0016
     23 C         6.430152   0.360671   -6.887155 C.3        1 UNL1     0.0012
     24 C         5.270051   0.107922   -7.862881 C.3        1 UNL1     -0.0339
     25 C         5.355567   1.031122   -9.089439 C.3        1 UNL1     -0.0615
     26 C         5.238351   -1.356007   -8.266224 C.3        1 UNL1     -0.0615
     27 C         6.30281   8.955626   -2.264726 C.ar        1 UNL1     0.1347
     28 C         5.348267   9.222001   -1.299354 C.ar        1 UNL1     0.0342
     29 C         4.65273   8.085297   -0.835351 C.ar        1 UNL1     0.1435
     30 C         4.873279   6.804075   -1.342349 C.ar        1 UNL1     0.0774
     31 O         3.616142   8.195469   0.023924 O.3        1 UNL1     -0.4436
     32 C         2.897452   6.960489   -0.114569 C.3        1 UNL1     0.3143
     33 C         3.910809   5.970615   -0.652594 C.2        1 UNL1     0.2504
     34 C         4.899712   10.586623   -0.85584 C.3        1 UNL1     -0.0327
     35 O         2.545451   6.522358   1.203532 O.2        1 UNL1     -0.4528
     36 C         -0.693836   4.580385   0.824264 C.3        1 UNL1     0.0854
     37 C         -1.000267   3.3191   -0.071718 C.3        1 UNL1     0.0236
     38 C         -1.592595   2.056032   0.7192 C.3        1 UNL1     0.1131
     39 C         -0.858014   1.52699   2.016419 C.3        1 UNL1     0.0200
     40 C         0.803817   1.386504   2.048335 C.3        1 UNL1     0.0661
     41 C         1.759029   0.620896   0.874016 C.3        1 UNL1     0.0091
     42 C         3.462348   0.988802   0.300646 C.3        1 UNL1     0.0661
     43 C         7.452782   7.484176   -3.932074 C.2        1 UNL1     0.2131
     44 O         7.845933   8.383648   -4.652575 O.2        1 UNL1     -0.2851
     45 O         7.10936   9.99332   -2.727441 O.3        1 UNL1     -0.5056
     46 O         3.931193   4.767103   -0.522224 O.2        1 UNL1     -0.2836
     47 C         5.570095   1.335809   1.89902 C.3        1 UNL1     -0.0566
     48 O         3.915659   -0.420949   0.379572 O.3        1 UNL1     -0.3909
     49 C         0.918687   0.386065   -0.361368 C.3        1 UNL1     -0.0577
     50 O         1.40247   2.606096   2.438122 O.3        1 UNL1     -0.3910
     51 O         -0.809622   4.389994   2.216304 O.3        1 UNL1     -0.3753
     52 C         0.03826   3.162095   -1.230062 C.3        1 UNL1     -0.0564
     53 O         -2.197012   1.015434   -0.17755 O.3        1 UNL1     -0.4608
     54 C         -2.394382   -0.30015   0.151409 C.2        1 UNL1     0.3042
     55 O         -1.747918   -1.272254   -0.237098 O.2        1 UNL1     -0.2512
     56 C         -3.50236   -0.512317   1.143419 C.3        1 UNL1     0.0332
     57 C         -1.574066   2.193477   3.28182 C.3        1 UNL1     -0.0567
     58 C         1.815513   7.202561   -1.192687 C.3        1 UNL1     0.0210
     59 C         -1.122299   5.56786   2.958416 C.3        1 UNL1     0.0372
     60 C         0.631935   5.213573   0.586436 C.2        1 UNL1     -0.0208
     61 C         1.548353   5.651379   1.450872 C.2        1 UNL1     0.0882
     62 H         4.686026   2.747124   0.553312 H        1 UNL1     0.0365
     63 H         6.325073   3.628094   -0.287904 H        1 UNL1     0.0576
     64 H         8.33177   1.515637   -1.291631 H        1 UNL1     0.0615
     65 H         8.253948   4.63285   -1.478142 H        1 UNL1     0.0622
     66 H         -1.442469   5.324713   0.518371 H        1 UNL1     0.0645
     67 H         -1.870135   3.625971   -0.678116 H        1 UNL1     0.0362
     68 H         -2.539023   2.489936   1.076303 H        1 UNL1     0.0741
     69 H         -1.185364   0.51484   2.213402 H        1 UNL1     0.0359
     70 H         0.922497   0.726309   2.928742 H        1 UNL1     0.0600
     71 H         1.808093   -0.400233   1.30045 H        1 UNL1     0.0348
     72 H         3.360423   1.47645   1.281016 H        1 UNL1     0.0602
     73 H         0.743469   5.411426   -0.450706 H        1 UNL1     0.0628
     74 H         1.537393   5.44041   2.520737 H        1 UNL1     0.1022
     75 H         10.878266   2.280305   -3.55254 H        1 UNL1     0.0279
     76 H         10.799209   3.540112   -4.718704 H        1 UNL1     0.0279
     77 H         11.888363   3.638446   -3.276701 H        1 UNL1     0.0279
     78 H         9.023662   4.833688   -5.069793 H        1 UNL1     0.1553
     79 H         7.751529   3.357943   -4.709128 H        1 UNL1     0.1484
     80 H         4.003434   2.743523   -4.826464 H        1 UNL1     0.0317
     81 H         4.730855   4.27355   -5.295294 H        1 UNL1     0.0317
     82 H         6.640471   3.090127   -6.411796 H        1 UNL1     0.0428
     83 H         5.08256   2.60938   -7.04701 H        1 UNL1     0.0428
     84 H         6.885209   -0.022471   -4.231525 H        1 UNL1     0.0428
     85 H         7.788371   1.391376   -4.649208 H        1 UNL1     0.0428
     86 H         6.507592   1.459035   -2.509143 H        1 UNL1     0.0317
     87 H         5.008095   1.227387   -3.283868 H        1 UNL1     0.0317
     88 H         7.221619   0.905013   -7.418726 H        1 UNL1     0.0429
     89 H         6.867569   -0.583861   -6.538874 H        1 UNL1     0.0429
     90 H         4.320412   0.297552   -7.348645 H        1 UNL1     0.0308
     91 H         6.308379   0.909291   -9.613279 H        1 UNL1     0.0233
     92 H         4.536358   0.828496   -9.783303 H        1 UNL1     0.0233
     93 H         5.273556   2.091265   -8.820726 H        1 UNL1     0.0233
     94 H         4.579053   -1.495674   -9.129737 H        1 UNL1     0.0233
     95 H         6.2411   -1.686994   -8.550664 H        1 UNL1     0.0233
     96 H         4.876678   -1.987165   -7.449645 H        1 UNL1     0.0233
     97 H         4.055771   10.536592   -0.174305 H        1 UNL1     0.0280
     98 H         5.6892   11.127036   -0.317398 H        1 UNL1     0.0280
     99 H         4.599333   11.180131   -1.734826 H        1 UNL1     0.0280
     100 H         6.641852   10.770658   -2.978049 H        1 UNL1     0.2922
     101 H         4.688273   1.003684   2.446505 H        1 UNL1     0.0236
     102 H         6.119336   2.107333   2.4376 H        1 UNL1     0.0236
     103 H         6.243048   0.462128   1.895851 H        1 UNL1     0.0236
     104 H         4.252581   -0.572223   1.284321 H        1 UNL1     0.2098
     105 H         0.700118   1.284374   -0.933277 H        1 UNL1     0.0234
     106 H         1.286823   -0.400678   -1.019729 H        1 UNL1     0.0234
     107 H         0.0   -0.0   0.0 H        1 UNL1     0.0234
     108 H         1.251942   3.246792   1.716584 H        1 UNL1     0.2098
     109 H         1.066943   3.064055   -0.856014 H        1 UNL1     0.0234
     110 H         -0.188706   2.32685   -1.901325 H        1 UNL1     0.0234
     111 H         0.044319   4.039863   -1.889935 H        1 UNL1     0.0234
     112 H         -3.593131   -1.577284   1.377837 H        1 UNL1     0.0342
     113 H         -3.359967   0.076217   2.048513 H        1 UNL1     0.0342
     114 H         -4.444377   -0.187954   0.680215 H        1 UNL1     0.0342
     115 H         -2.661258   2.035513   3.266018 H        1 UNL1     0.0234
     116 H         -1.203643   1.83177   4.243071 H        1 UNL1     0.0234
     117 H         -1.518954   3.295683   3.288511 H        1 UNL1     0.0234
     118 H         0.913418   7.682387   -0.774359 H        1 UNL1     0.0309
     119 H         2.17709   7.795748   -2.038615 H        1 UNL1     0.0309
     120 H         1.430728   6.269644   -1.618964 H        1 UNL1     0.0309
     121 H         -0.788818   5.409801   3.983679 H        1 UNL1     0.0524
     122 H         -0.597482   6.457417   2.572032 H        1 UNL1     0.0524
     123 H         -2.192549   5.752753   2.936658 H        1 UNL1     0.0524
@<TRIPOS>BOND
     1     1     2    1
     2     1    42    1
     3     2     3    2
     4     3     4    1
     5     4     5    2
     6     5     7    1
     7     6    75    1
     8     6    76    1
     9     6    77    1
    10     7     9   am
    11     9    10    1
    12    10    11    2
    13    10    43    1
    14    11    14    1
    15    11    15    1
    16    12    13   ar
    17    12    27   ar
    18    12    43    1
    19    13    14    1
    20    13    30   ar
    21    14    17    2
    22    15    16    1
    23    16    17    1
    24    16    18    1
    25    16    22    1
    26    18    19    1
    27    19    20    1
    28    20    21    1
    29    21    22    1
    30    23    24    1
    31    23    88    1
    32    23    89    1
    33    24    25    1
    34    24    26    1
    35    24    90    1
    36    25    91    1
    37    25    92    1
    38    25    93    1
    39    26    94    1
    40    26    95    1
    41    26    96    1
    42    27    28   ar
    43    28    29   ar
    44    29    30   ar
    45    29    31    1
    46    30    33    1
    47    31    32    1
    48    32    33    1
    49    32    35    1
    50    34    97    1
    51    34    98    1
    52    34    99    1
    53    35    61    1
    54    36    37    1
    55    36    60    1
    56    37    38    1
    57    38    39    1
    58    39    40    1
    59    40    41    1
    60    41    42    1
    61    45   100    1
    62    47   101    1
    63    47   102    1
    64    47   103    1
    65    48   104    1
    66    49   105    1
    67    49   106    1
    68    49   107    1
    69    50   108    1
    70    51    59    1
    71    52   109    1
    72    52   110    1
    73    52   111    1
    74    53    54    1
    75    54    55    2
    76    54    56    1
    77    56   112    1
    78    56   113    1
    79    56   114    1
    80    57   115    1
    81    57   116    1
    82    57   117    1
    83    58   118    1
    84    58   119    1
    85    58   120    1
    86    59   121    1
    87    59   122    1
    88    59   123    1
    89    60    61    2
    90     1    47    1
    91     1    62    1
    92     2    63    1
    93     3    64    1
    94     4    65    1
    95     5     6    1
    96     7     8    2
    97     9    78    1
    98    15    79    1
    99    18    80    1
   100    18    81    1
   101    19    82    1
   102    19    83    1
   103    20    23    1
   104    21    84    1
   105    21    85    1
   106    22    86    1
   107    22    87    1
   108    27    45    1
   109    28    34    1
   110    32    58    1
   111    33    46    2
   112    36    51    1
   113    36    66    1
   114    37    52    1
   115    37    67    1
   116    38    53    1
   117    38    68    1
   118    42    48    1
   119    42    72    1
   120    43    44    2
   121    60    73    1
   122    61    74    1
   123    39    69    1
   124    39    57    1
   125    40    70    1
   126    40    50    1
   127    41    71    1
   128    41    49    1
