@<TRIPOS>MOLECULE
*****
 123 128 0 0 0
SMALL
GASTEIGER

@<TRIPOS>ATOM
     1 C         5.105402   1.92597   0.487097 C.3        1 UNL1     0.0009
     2 C         6.494143   2.821126   -0.353815 C.2        1 UNL1     -0.0787
     3 C         7.771914   2.801003   -1.034214 C.2        1 UNL1     -0.0649
     4 C         8.583297   4.095985   -1.762935 C.2        1 UNL1     -0.0542
     5 C         9.57855   4.461559   -2.702565 C.2        1 UNL1     0.0115
     6 C         10.724948   3.913374   -3.596203 C.3        1 UNL1     -0.0348
     7 C         9.598878   5.96391   -3.267825 C.2        1 UNL1     0.2441
     8 O         10.388059   6.812068   -2.874955 O.2        1 UNL1     -0.2702
     9 N         8.827307   6.168298   -4.425 N.am        1 UNL1     -0.2772
     10 C         7.531602   6.486229   -4.088262 C.2        1 UNL1     0.1049
     11 C         6.734682   5.468915   -3.815842 C.2        1 UNL1     0.0801
     12 C         6.17588   7.991161   -2.62043 C.ar        1 UNL1     0.0753
     13 C         5.474483   6.817275   -2.197768 C.ar        1 UNL1     0.0305
     14 C         5.644474   5.536824   -2.88085 C.2        1 UNL1     0.0924
     15 N         6.916684   4.151982   -4.013554 N.pl3        1 UNL1     -0.3170
     16 C         5.679253   3.486088   -3.704356 C.3        1 UNL1     0.1275
     17 N         5.010142   4.38321   -2.691842 N.2        1 UNL1     -0.2557
     18 C         4.81098   3.540619   -4.957683 C.3        1 UNL1     0.0016
     19 C         5.584339   2.923864   -6.112292 C.3        1 UNL1     0.0026
     20 N         5.921851   1.549587   -5.768088 N.3        1 UNL1     -0.3018
     21 C         6.705139   1.390408   -4.541103 C.3        1 UNL1     0.0026
     22 C         5.907564   2.012686   -3.393698 C.3        1 UNL1     0.0016
     23 C         6.391629   0.782669   -6.904657 C.3        1 UNL1     0.0012
     24 C         5.238359   0.507256   -7.882344 C.3        1 UNL1     -0.0339
     25 C         5.27761   1.466969   -9.082956 C.3        1 UNL1     -0.0615
     26 C         5.267564   -0.94492   -8.326317 C.3        1 UNL1     -0.0615
     27 C         5.918867   9.23253   -2.043312 C.ar        1 UNL1     0.1347
     28 C         4.95884   9.430563   -1.067002 C.ar        1 UNL1     0.0342
     29 C         4.315317   8.252459   -0.632131 C.ar        1 UNL1     0.1435
     30 C         4.588125   6.996513   -1.175635 C.ar        1 UNL1     0.0774
     31 O         3.279486   8.293898   0.234093 O.3        1 UNL1     -0.4436
     32 C         2.613887   7.033366   0.064056 C.3        1 UNL1     0.3143
     33 C         3.666057   6.103467   -0.50554 C.2        1 UNL1     0.2504
     34 C         4.454318   10.761718   -0.583699 C.3        1 UNL1     -0.0327
     35 O         2.28801   6.544042   1.370814 O.2        1 UNL1     -0.4528
     36 C         -0.866658   4.475332   0.950577 C.3        1 UNL1     0.0854
     37 C         -1.123239   3.227346   0.020943 C.3        1 UNL1     0.0236
     38 C         -1.656492   1.918427   0.778648 C.3        1 UNL1     0.1131
     39 C         -0.893007   1.385791   2.057577 C.3        1 UNL1     0.0200
     40 C         0.773476   1.316335   2.078801 C.3        1 UNL1     0.0661
     41 C         1.754555   0.625553   0.87967 C.3        1 UNL1     0.0091
     42 C         3.437421   1.082407   0.309892 C.3        1 UNL1     0.0661
     43 C         7.122303   7.858925   -3.755796 C.2        1 UNL1     0.2131
     44 O         7.472583   8.794176   -4.452465 O.2        1 UNL1     -0.2851
     45 O         6.677568   10.316511   -2.480114 O.3        1 UNL1     -0.5056
     46 O         3.7389   4.898803   -0.408945 O.2        1 UNL1     -0.2836
     47 C         5.536668   1.475579   1.908765 C.3        1 UNL1     -0.0566
     48 O         3.951388   -0.30811   0.347541 O.3        1 UNL1     -0.3909
     49 C         0.918606   0.389042   -0.358371 C.3        1 UNL1     -0.0577
     50 O         1.321134   2.549343   2.50009 O.3        1 UNL1     -0.3910
     51 O         -0.966814   4.241564   2.337211 O.3        1 UNL1     -0.3753
     52 C         -0.085029   3.147519   -1.145546 C.3        1 UNL1     -0.0564
     53 O         -2.22028   0.877996   -0.144375 O.3        1 UNL1     -0.4608
     54 C         -2.359119   -0.453503   0.148482 C.2        1 UNL1     0.3042
     55 O         -1.644684   -1.380281   -0.231652 O.2        1 UNL1     -0.2512
     56 C         -3.494654   -0.747635   1.08697 C.3        1 UNL1     0.0332
     57 C         -1.630406   1.985377   3.344011 C.3        1 UNL1     -0.0567
     58 C         1.516873   7.258338   -1.002471 C.3        1 UNL1     0.0210
     59 C         -1.325977   5.383789   3.11322 C.3        1 UNL1     0.0372
     60 C         0.429367   5.171511   0.725157 C.2        1 UNL1     -0.0208
     61 C         1.330633   5.624308   1.597762 C.2        1 UNL1     0.0882
     62 H         4.585612   2.884219   0.606633 H        1 UNL1     0.0365
     63 H         6.180778   3.858121   -0.216282 H        1 UNL1     0.0576
     64 H         8.271212   1.862917   -1.286808 H        1 UNL1     0.0615
     65 H         8.058336   4.977839   -1.385798 H        1 UNL1     0.0622
     66 H         -1.648228   5.194855   0.668653 H        1 UNL1     0.0645
     67 H         -2.008687   3.513094   -0.573102 H        1 UNL1     0.0362
     68 H         -2.618823   2.300998   1.151582 H        1 UNL1     0.0741
     69 H         -1.175456   0.355378   2.22752 H        1 UNL1     0.0359
     70 H         0.925089   0.6377   2.939922 H        1 UNL1     0.0600
     71 H         1.84976   -0.403946   1.277193 H        1 UNL1     0.0348
     72 H         3.319768   1.537808   1.303916 H        1 UNL1     0.0602
     73 H         0.526822   5.402698   -0.306494 H        1 UNL1     0.0628
     74 H         1.334394   5.383455   2.661347 H        1 UNL1     0.1022
     75 H         10.770505   2.799234   -3.535787 H        1 UNL1     0.0279
     76 H         10.63117   4.08633   -4.665951 H        1 UNL1     0.0279
     77 H         11.722659   4.191531   -3.2262 H        1 UNL1     0.0279
     78 H         8.799777   5.311306   -4.973529 H        1 UNL1     0.1553
     79 H         7.594245   3.772587   -4.649089 H        1 UNL1     0.1484
     80 H         3.875498   3.000451   -4.768323 H        1 UNL1     0.0317
     81 H         4.533924   4.572871   -5.197155 H        1 UNL1     0.0317
     82 H         6.486795   3.504416   -6.354049 H        1 UNL1     0.0428
     83 H         4.947692   2.974685   -6.996118 H        1 UNL1     0.0428
     84 H         6.876725   0.34598   -4.262644 H        1 UNL1     0.0428
     85 H         7.715996   1.808538   -4.644311 H        1 UNL1     0.0428
     86 H         6.444776   1.761437   -2.498005 H        1 UNL1     0.0317
     87 H         4.952579   1.48687   -3.272803 H        1 UNL1     0.0317
     88 H         7.156128   1.375208   -7.424015 H        1 UNL1     0.0429
     89 H         6.871115   -0.151402   -6.584692 H        1 UNL1     0.0429
     90 H         4.284159   0.641376   -7.359155 H        1 UNL1     0.0308
     91 H         6.288571   1.549741   -9.493087 H        1 UNL1     0.0233
     92 H         4.598074   1.129966   -9.869257 H        1 UNL1     0.0233
     93 H         4.958135   2.481867   -8.816963 H        1 UNL1     0.0233
     94 H         4.73263   -1.060621   -9.275155 H        1 UNL1     0.0233
     95 H         6.300988   -1.267812   -8.480389 H        1 UNL1     0.0233
     96 H         4.800427   -1.59852   -7.58432 H        1 UNL1     0.0233
     97 H         3.616911   10.656413   0.099595 H        1 UNL1     0.0280
     98 H         5.222641   11.320555   -0.033574 H        1 UNL1     0.0280
     99 H         4.124053   11.365871   -1.444524 H        1 UNL1     0.0280
     100 H         6.175728   11.0796   -2.706996 H        1 UNL1     0.2922
     101 H         4.67285   1.090636   2.45033 H        1 UNL1     0.0236
     102 H         6.055025   2.254849   2.466463 H        1 UNL1     0.0236
     103 H         6.246569   0.632185   1.878441 H        1 UNL1     0.0236
     104 H         4.299266   -0.469749   1.246331 H        1 UNL1     0.2098
     105 H         0.699065   1.287077   -0.930339 H        1 UNL1     0.0234
     106 H         1.291048   -0.396161   -1.016147 H        1 UNL1     0.0234
     107 H         0.0   -0.0   0.0 H        1 UNL1     0.0234
     108 H         1.139378   3.202721   1.79736 H        1 UNL1     0.2098
     109 H         0.948875   3.08363   -0.778568 H        1 UNL1     0.0234
     110 H         -0.279372   2.322206   -1.838967 H        1 UNL1     0.0234
     111 H         -0.120223   4.042704   -1.780646 H        1 UNL1     0.0234
     112 H         -3.536865   -1.821045   1.295189 H        1 UNL1     0.0342
     113 H         -3.422911   -0.173248   2.009346 H        1 UNL1     0.0342
     114 H         -4.43264   -0.463805   0.590193 H        1 UNL1     0.0342
     115 H         -2.710816   1.786511   3.325164 H        1 UNL1     0.0234
     116 H         -1.243735   1.608857   4.293099 H        1 UNL1     0.0234
     117 H         -1.617389   3.088163   3.384428 H        1 UNL1     0.0234
     118 H         0.507443   7.298088   -0.556964 H        1 UNL1     0.0309
     119 H         1.679297   8.159375   -1.602431 H        1 UNL1     0.0309
     120 H         1.44626   6.428675   -1.714355 H        1 UNL1     0.0309
     121 H         -0.936513   5.234208   4.119848 H        1 UNL1     0.0524
     122 H         -0.881553   6.313269   2.720039 H        1 UNL1     0.0524
     123 H         -2.4063   5.494141   3.141846 H        1 UNL1     0.0524
@<TRIPOS>BOND
     1     1     2    1
     2     1    42    1
     3     2     3    2
     4     3     4    1
     5     4     5    2
     6     5     7    1
     7     6    75    1
     8     6    76    1
     9     6    77    1
    10     7     9   am
    11     9    10    1
    12    10    11    2
    13    10    43    1
    14    11    14    1
    15    11    15    1
    16    12    13   ar
    17    12    27   ar
    18    12    43    1
    19    13    14    1
    20    13    30   ar
    21    14    17    2
    22    15    16    1
    23    16    17    1
    24    16    18    1
    25    16    22    1
    26    18    19    1
    27    19    20    1
    28    20    21    1
    29    21    22    1
    30    23    24    1
    31    23    88    1
    32    23    89    1
    33    24    25    1
    34    24    26    1
    35    24    90    1
    36    25    91    1
    37    25    92    1
    38    25    93    1
    39    26    94    1
    40    26    95    1
    41    26    96    1
    42    27    28   ar
    43    28    29   ar
    44    29    30   ar
    45    29    31    1
    46    30    33    1
    47    31    32    1
    48    32    33    1
    49    32    35    1
    50    34    97    1
    51    34    98    1
    52    34    99    1
    53    35    61    1
    54    36    37    1
    55    36    60    1
    56    37    38    1
    57    38    39    1
    58    39    40    1
    59    40    41    1
    60    41    42    1
    61    45   100    1
    62    47   101    1
    63    47   102    1
    64    47   103    1
    65    48   104    1
    66    49   105    1
    67    49   106    1
    68    49   107    1
    69    50   108    1
    70    51    59    1
    71    52   109    1
    72    52   110    1
    73    52   111    1
    74    53    54    1
    75    54    55    2
    76    54    56    1
    77    56   112    1
    78    56   113    1
    79    56   114    1
    80    57   115    1
    81    57   116    1
    82    57   117    1
    83    58   118    1
    84    58   119    1
    85    58   120    1
    86    59   121    1
    87    59   122    1
    88    59   123    1
    89    60    61    2
    90     1    47    1
    91     1    62    1
    92     2    63    1
    93     3    64    1
    94     4    65    1
    95     5     6    1
    96     7     8    2
    97     9    78    1
    98    15    79    1
    99    18    80    1
   100    18    81    1
   101    19    82    1
   102    19    83    1
   103    20    23    1
   104    21    84    1
   105    21    85    1
   106    22    86    1
   107    22    87    1
   108    27    45    1
   109    28    34    1
   110    32    58    1
   111    33    46    2
   112    36    51    1
   113    36    66    1
   114    37    52    1
   115    37    67    1
   116    38    53    1
   117    38    68    1
   118    42    48    1
   119    42    72    1
   120    43    44    2
   121    60    73    1
   122    61    74    1
   123    39    69    1
   124    39    57    1
   125    40    70    1
   126    40    50    1
   127    41    71    1
   128    41    49    1
