@<TRIPOS>MOLECULE
*****
 123 128 0 0 0
SMALL
GASTEIGER

@<TRIPOS>ATOM
     1 C         1.436458   -1.128848   -3.836839 C.3        1 UNL1     0.0009
     2 C         0.56955   -2.15538   -5.114234 C.2        1 UNL1     -0.0787
     3 C         0.412122   -3.407137   -5.824422 C.2        1 UNL1     -0.0649
     4 C         -0.785406   -3.82347   -6.946452 C.2        1 UNL1     -0.0542
     5 C         -1.451787   -4.895775   -7.589238 C.2        1 UNL1     0.0115
     6 C         -1.427486   -6.431528   -7.822038 C.3        1 UNL1     -0.0348
     7 C         -2.863311   -4.617963   -8.301565 C.2        1 UNL1     0.2441
     8 O         -2.984575   -4.49406   -9.512543 O.2        1 UNL1     -0.2702
     9 N         -3.985194   -4.786003   -7.471328 N.am        1 UNL1     -0.2772
     10 C         -4.27311   -3.614151   -6.810124 C.2        1 UNL1     0.1049
     11 C         -3.577578   -3.379298   -5.712261 C.2        1 UNL1     0.0801
     12 C         -4.601622   -1.161039   -7.172964 C.ar        1 UNL1     0.0753
     13 C         -3.672815   -0.958027   -6.103051 C.ar        1 UNL1     0.0305
     14 C         -3.232416   -2.061432   -5.252405 C.2        1 UNL1     0.0924
     15 N         -2.77337   -4.194271   -5.008275 N.pl3        1 UNL1     -0.3170
     16 C         -2.395526   -3.505043   -3.803097 C.3        1 UNL1     0.1275
     17 N         -2.463491   -2.042029   -4.167369 N.2        1 UNL1     -0.2557
     18 C         -3.504466   -3.739105   -2.78174 C.3        1 UNL1     0.0016
     19 C         -3.701682   -5.237145   -2.612703 C.3        1 UNL1     0.0026
     20 N         -2.446587   -5.826924   -2.167819 N.3        1 UNL1     -0.3018
     21 C         -1.304453   -5.601741   -3.056183 C.3        1 UNL1     0.0026
     22 C         -1.121677   -4.090654   -3.20819 C.3        1 UNL1     0.0016
     23 C         -2.600148   -7.18728   -1.691905 C.3        1 UNL1     0.0012
     24 C         -3.360047   -7.208096   -0.356286 C.3        1 UNL1     -0.0339
     25 C         -2.861034   -8.339841   0.557058 C.3        1 UNL1     -0.0615
     26 C         -3.255508   -5.853949   0.323519 C.3        1 UNL1     -0.0615
     27 C         -5.109168   -0.087855   -7.901518 C.ar        1 UNL1     0.1347
     28 C         -4.793598   1.231098   -7.627968 C.ar        1 UNL1     0.0342
     29 C         -3.839873   1.403623   -6.602391 C.ar        1 UNL1     0.1435
     30 C         -3.295398   0.335733   -5.887984 C.ar        1 UNL1     0.0774
     31 O         -3.511507   2.631489   -6.144649 O.3        1 UNL1     -0.4436
     32 C         -2.925611   2.393365   -4.855892 C.3        1 UNL1     0.3143
     33 C         -2.438647   0.959125   -4.901005 C.2        1 UNL1     0.2504
     34 C         -5.48547   2.439162   -8.195413 C.3        1 UNL1     -0.0327
     35 O         -1.763429   3.225592   -4.755973 O.2        1 UNL1     -0.4528
     36 C         -1.383852   4.044634   -1.06908 C.3        1 UNL1     0.0854
     37 C         -1.236479   3.065939   0.158911 C.3        1 UNL1     0.0236
     38 C         0.055926   3.319434   1.073882 C.3        1 UNL1     0.1131
     39 C         1.484145   3.427949   0.402552 C.3        1 UNL1     0.0200
     40 C         1.937483   2.360433   -0.796336 C.3        1 UNL1     0.0661
     41 C         1.808704   0.670573   -0.722855 C.3        1 UNL1     0.0091
     42 C         1.497602   -0.557977   -2.049235 C.3        1 UNL1     0.0661
     43 C         -5.075411   -2.544981   -7.422938 C.2        1 UNL1     0.2131
     44 O         -6.1136   -2.806497   -8.003033 O.2        1 UNL1     -0.2851
     45 O         -5.97298   -0.375218   -8.956359 O.3        1 UNL1     -0.5056
     46 O         -1.532857   0.450965   -4.278774 O.2        1 UNL1     -0.2836
     47 C         2.829414   -0.683313   -4.357563 C.3        1 UNL1     -0.0566
     48 O         2.592926   -1.463085   -1.62478 O.3        1 UNL1     -0.3909
     49 C         0.916483   0.299282   0.440579 C.3        1 UNL1     -0.0577
     50 O         1.516656   2.822401   -2.064095 O.3        1 UNL1     -0.3910
     51 O         -0.2877   4.897064   -1.312485 O.3        1 UNL1     -0.3753
     52 C         -1.746023   1.626924   -0.179543 C.3        1 UNL1     -0.0564
     53 O         -0.00584   2.629052   2.405003 O.3        1 UNL1     -0.4608
     54 C         1.055488   2.050626   3.050709 C.2        1 UNL1     0.3042
     55 O         1.331112   0.852975   3.109882 O.2        1 UNL1     -0.2512
     56 C         1.98194   3.043242   3.693449 C.3        1 UNL1     0.0332
     57 C         1.792802   4.980547   0.17376 C.3        1 UNL1     -0.0567
     58 C         -4.075172   2.497764   -3.826746 C.3        1 UNL1     0.0210
     59 C         -0.511139   6.268382   -0.987788 C.3        1 UNL1     0.0372
     60 C         -1.710585   3.385469   -2.362876 C.2        1 UNL1     -0.0208
     61 C         -1.203625   3.574883   -3.581834 C.2        1 UNL1     0.0882
     62 H         0.743497   -0.307197   -4.054568 H        1 UNL1     0.0365
     63 H         -0.116204   -1.418071   -5.53683 H        1 UNL1     0.0576
     64 H         0.99438   -4.292589   -5.559736 H        1 UNL1     0.0615
     65 H         -1.249087   -2.86628   -7.199967 H        1 UNL1     0.0622
     66 H         -2.253417   4.669506   -0.821214 H        1 UNL1     0.0645
     67 H         -2.050652   3.366973   0.840864 H        1 UNL1     0.0362
     68 H         -0.172751   4.332443   1.438631 H        1 UNL1     0.0741
     69 H         2.238439   3.266814   1.161159 H        1 UNL1     0.0359
     70 H         3.032326   2.522797   -0.79222 H        1 UNL1     0.0600
     71 H         2.808632   0.417912   -0.318794 H        1 UNL1     0.0348
     72 H         1.84764   0.353146   -2.555834 H        1 UNL1     0.0602
     73 H         -2.559798   2.76172   -2.232397 H        1 UNL1     0.0628
     74 H         -0.301942   4.151115   -3.79198 H        1 UNL1     0.1022
     75 H         -0.614909   -6.906331   -7.220943 H        1 UNL1     0.0279
     76 H         -2.308252   -6.984504   -7.503391 H        1 UNL1     0.0279
     77 H         -1.12678   -6.701899   -8.844866 H        1 UNL1     0.0279
     78 H         -3.786871   -5.494089   -6.767511 H        1 UNL1     0.1553
     79 H         -2.79556   -5.195053   -5.078101 H        1 UNL1     0.1484
     80 H         -3.224482   -3.26258   -1.834482 H        1 UNL1     0.0317
     81 H         -4.439521   -3.269008   -3.104743 H        1 UNL1     0.0317
     82 H         -4.053252   -5.708935   -3.542071 H        1 UNL1     0.0428
     83 H         -4.497842   -5.381461   -1.881709 H        1 UNL1     0.0428
     84 H         -0.358855   -5.985572   -2.660796 H        1 UNL1     0.0428
     85 H         -1.42383   -6.123553   -4.015755 H        1 UNL1     0.0428
     86 H         -0.203917   -3.963236   -3.75176 H        1 UNL1     0.0317
     87 H         -0.903473   -3.639577   -2.232478 H        1 UNL1     0.0317
     88 H         -3.184514   -7.745233   -2.435208 H        1 UNL1     0.0429
     89 H         -1.628804   -7.690582   -1.602733 H        1 UNL1     0.0429
     90 H         -4.427574   -7.362983   -0.55278 H        1 UNL1     0.0308
     91 H         -1.767864   -8.372378   0.589025 H        1 UNL1     0.0233
     92 H         -3.245956   -8.215349   1.57192 H        1 UNL1     0.0233
     93 H         -3.198998   -9.327555   0.220849 H        1 UNL1     0.0233
     94 H         -3.437204   -5.956139   1.39887 H        1 UNL1     0.0233
     95 H         -2.250278   -5.444877   0.188852 H        1 UNL1     0.0233
     96 H         -3.98234   -5.145695   -0.083985 H        1 UNL1     0.0233
     97 H         -5.905202   3.070876   -7.418244 H        1 UNL1     0.0280
     98 H         -4.799426   3.079403   -8.765231 H        1 UNL1     0.0280
     99 H         -6.304624   2.117489   -8.859196 H        1 UNL1     0.0280
     100 H         -5.66288   -1.03942   -9.546524 H        1 UNL1     0.2922
     101 H         3.175478   0.179865   -3.78939 H        1 UNL1     0.0236
     102 H         2.847061   -0.499937   -5.431363 H        1 UNL1     0.0236
     103 H         3.599775   -1.454785   -4.191531 H        1 UNL1     0.0236
     104 H         3.343266   -0.905133   -1.340792 H        1 UNL1     0.2098
     105 H         1.283172   -0.529353   1.041174 H        1 UNL1     0.0234
     106 H         0.632983   1.133994   1.081524 H        1 UNL1     0.0234
     107 H         -0.0   0.0   0.0 H        1 UNL1     0.0234
     108 H         1.597133   2.074391   -2.686809 H        1 UNL1     0.2098
     109 H         -2.810209   1.616203   -0.453596 H        1 UNL1     0.0234
     110 H         -1.160498   1.136596   -0.964707 H        1 UNL1     0.0234
     111 H         -1.654104   0.952007   0.681842 H        1 UNL1     0.0234
     112 H         2.256513   2.701095   4.695892 H        1 UNL1     0.0342
     113 H         2.867647   3.228644   3.087649 H        1 UNL1     0.0342
     114 H         1.444848   3.995994   3.798134 H        1 UNL1     0.0342
     115 H         2.864164   5.20295   0.273303 H        1 UNL1     0.0234
     116 H         1.467616   5.359447   -0.797187 H        1 UNL1     0.0234
     117 H         1.366167   5.633587   0.954442 H        1 UNL1     0.0234
     118 H         -3.982763   3.396171   -3.191662 H        1 UNL1     0.0309
     119 H         -5.067571   2.486109   -4.288495 H        1 UNL1     0.0309
     120 H         -4.067668   1.675186   -3.103272 H        1 UNL1     0.0309
     121 H         -0.160764   6.427114   0.03172 H        1 UNL1     0.0524
     122 H         0.05469   6.951104   -1.643353 H        1 UNL1     0.0524
     123 H         -1.568891   6.504593   -1.06167 H        1 UNL1     0.0524
@<TRIPOS>BOND
     1     1     2    1
     2     1    42    1
     3     2     3    2
     4     3     4    1
     5     4     5    2
     6     5     7    1
     7     6    75    1
     8     6    76    1
     9     6    77    1
    10     7     9   am
    11     9    10    1
    12    10    11    2
    13    10    43    1
    14    11    14    1
    15    11    15    1
    16    12    13   ar
    17    12    27   ar
    18    12    43    1
    19    13    14    1
    20    13    30   ar
    21    14    17    2
    22    15    16    1
    23    16    17    1
    24    16    18    1
    25    16    22    1
    26    18    19    1
    27    19    20    1
    28    20    21    1
    29    21    22    1
    30    23    24    1
    31    23    88    1
    32    23    89    1
    33    24    25    1
    34    24    26    1
    35    24    90    1
    36    25    91    1
    37    25    92    1
    38    25    93    1
    39    26    94    1
    40    26    95    1
    41    26    96    1
    42    27    28   ar
    43    28    29   ar
    44    29    30   ar
    45    29    31    1
    46    30    33    1
    47    31    32    1
    48    32    33    1
    49    32    35    1
    50    34    97    1
    51    34    98    1
    52    34    99    1
    53    35    61    1
    54    36    37    1
    55    36    60    1
    56    37    38    1
    57    38    39    1
    58    39    40    1
    59    40    41    1
    60    41    42    1
    61    45   100    1
    62    47   101    1
    63    47   102    1
    64    47   103    1
    65    48   104    1
    66    49   105    1
    67    49   106    1
    68    49   107    1
    69    50   108    1
    70    51    59    1
    71    52   109    1
    72    52   110    1
    73    52   111    1
    74    53    54    1
    75    54    55    2
    76    54    56    1
    77    56   112    1
    78    56   113    1
    79    56   114    1
    80    57   115    1
    81    57   116    1
    82    57   117    1
    83    58   118    1
    84    58   119    1
    85    58   120    1
    86    59   121    1
    87    59   122    1
    88    59   123    1
    89    60    61    2
    90     1    47    1
    91     1    62    1
    92     2    63    1
    93     3    64    1
    94     4    65    1
    95     5     6    1
    96     7     8    2
    97     9    78    1
    98    15    79    1
    99    18    80    1
   100    18    81    1
   101    19    82    1
   102    19    83    1
   103    20    23    1
   104    21    84    1
   105    21    85    1
   106    22    86    1
   107    22    87    1
   108    27    45    1
   109    28    34    1
   110    32    58    1
   111    33    46    2
   112    36    51    1
   113    36    66    1
   114    37    52    1
   115    37    67    1
   116    38    53    1
   117    38    68    1
   118    42    48    1
   119    42    72    1
   120    43    44    2
   121    60    73    1
   122    61    74    1
   123    39    69    1
   124    39    57    1
   125    40    70    1
   126    40    50    1
   127    41    71    1
   128    41    49    1
