@<TRIPOS>MOLECULE
*****
 123 128 0 0 0
SMALL
GASTEIGER

@<TRIPOS>ATOM
     1 C         2.569853   4.56821   0.403681 C.3        1 UNL1     0.0009
     2 C         2.372426   6.25254   1.152743 C.2        1 UNL1     -0.0787
     3 C         2.212195   7.683467   1.001684 C.2        1 UNL1     -0.0649
     4 C         1.936434   8.83333   2.213347 C.2        1 UNL1     -0.0542
     5 C         1.461561   10.139525   2.48799 C.2        1 UNL1     0.0115
     6 C         1.014656   11.477006   1.836266 C.3        1 UNL1     -0.0348
     7 C         1.061265   10.519637   3.995394 C.2        1 UNL1     0.2441
     8 O         1.781724   11.183619   4.727918 O.2        1 UNL1     -0.2702
     9 N         -0.279512   10.26332   4.331205 N.am        1 UNL1     -0.2772
     10 C         -0.42126   8.974451   4.791688 C.2        1 UNL1     0.1049
     11 C         -0.541402   8.036785   3.869423 C.2        1 UNL1     0.0801
     12 C         0.553951   7.323514   6.398146 C.ar        1 UNL1     0.0753
     13 C         0.596152   6.401928   5.30384 C.ar        1 UNL1     0.0305
     14 C         -0.072465   6.68787   4.036465 C.2        1 UNL1     0.0924
     15 N         -0.758837   8.147963   2.547724 N.pl3        1 UNL1     -0.3170
     16 C         -0.980394   6.825443   2.026084 C.3        1 UNL1     0.1275
     17 N         -0.22037   5.917814   2.962191 N.2        1 UNL1     -0.2557
     18 C         -2.457461   6.50123   2.228222 C.3        1 UNL1     0.0016
     19 C         -3.289024   7.586107   1.562539 C.3        1 UNL1     0.0026
     20 N         -2.951557   7.631458   0.146528 N.3        1 UNL1     -0.3018
     21 C         -1.538314   7.876853   -0.148249 C.3        1 UNL1     0.0026
     22 C         -0.721933   6.772913   0.526089 C.3        1 UNL1     0.0016
     23 C         -3.890009   8.414895   -0.632046 C.3        1 UNL1     0.0012
     24 C         -4.321995   7.644221   -1.889506 C.3        1 UNL1     -0.0339
     25 C         -5.806726   7.249913   -1.825069 C.3        1 UNL1     -0.0615
     26 C         -4.013971   8.46101   -3.132388 C.3        1 UNL1     -0.0615
     27 C         1.089298   6.993278   7.640911 C.ar        1 UNL1     0.1347
     28 C         1.65457   5.761738   7.919887 C.ar        1 UNL1     0.0342
     29 C         1.729111   4.888481   6.81398 C.ar        1 UNL1     0.1435
     30 C         1.229604   5.219207   5.553689 C.ar        1 UNL1     0.0774
     31 O         2.152379   3.612864   6.950551 O.3        1 UNL1     -0.4436
     32 C         1.652143   2.938167   5.786326 C.3        1 UNL1     0.3143
     33 C         1.44119   4.029265   4.756172 C.2        1 UNL1     0.2504
     34 C         2.018606   5.247549   9.284873 C.3        1 UNL1     -0.0327
     35 O         2.704534   2.098709   5.295373 O.2        1 UNL1     -0.4528
     36 C         0.991773   -0.856052   3.638892 C.3        1 UNL1     0.0854
     37 C         -0.060118   -0.867426   2.463767 C.3        1 UNL1     0.0236
     38 C         0.344051   -1.773249   1.203658 C.3        1 UNL1     0.1131
     39 C         1.769324   -1.602685   0.538995 C.3        1 UNL1     0.0200
     40 C         2.398593   -0.081843   0.267891 C.3        1 UNL1     0.0661
     41 C         1.596741   1.203818   -0.494814 C.3        1 UNL1     0.0091
     42 C         1.725209   3.013885   -0.225454 C.3        1 UNL1     0.0661
     43 C         -0.158592   8.608762   6.191556 C.2        1 UNL1     0.2131
     44 O         -0.602541   9.285955   7.100984 O.2        1 UNL1     -0.2851
     45 O         1.048219   7.964053   8.639584 O.3        1 UNL1     -0.5056
     46 O         1.464717   3.940511   3.548934 O.2        1 UNL1     -0.2836
     47 C         4.011076   4.387207   -0.14413 C.3        1 UNL1     -0.0566
     48 O         1.842601   3.335314   -1.668374 O.3        1 UNL1     -0.3909
     49 C         0.123335   0.874754   -0.585844 C.3        1 UNL1     -0.0577
     50 O         3.085902   0.387115   1.410436 O.3        1 UNL1     -0.3910
     51 O         2.221133   -1.492113   3.371437 O.3        1 UNL1     -0.3753
     52 C         -0.763579   0.519294   2.299144 C.3        1 UNL1     -0.0564
     53 O         -0.799089   -2.049595   0.271355 O.3        1 UNL1     -0.4608
     54 C         -1.010846   -3.225037   -0.400526 C.2        1 UNL1     0.3042
     55 O         -2.019671   -3.928907   -0.374486 O.2        1 UNL1     -0.2512
     56 C         0.129034   -3.619758   -1.295837 C.3        1 UNL1     0.0332
     57 C         2.734934   -2.705618   1.178768 C.3        1 UNL1     -0.0567
     58 C         0.276818   2.34996   6.178786 C.3        1 UNL1     0.0210
     59 C         2.416972   -1.869361   2.009381 C.3        1 UNL1     0.0372
     60 C         1.314883   0.49202   4.180614 C.2        1 UNL1     -0.0208
     61 C         2.490582   1.039938   4.490876 C.2        1 UNL1     0.0882
     62 H         2.562594   4.139485   1.413063 H        1 UNL1     0.0365
     63 H         2.464077   6.015104   2.214672 H        1 UNL1     0.0576
     64 H         2.090206   8.145261   0.019354 H        1 UNL1     0.0615
     65 H         2.159974   8.295548   3.138713 H        1 UNL1     0.0622
     66 H         0.497676   -1.399008   4.456885 H        1 UNL1     0.0645
     67 H         -0.915065   -1.432007   2.874709 H        1 UNL1     0.0362
     68 H         0.363831   -2.762077   1.686721 H        1 UNL1     0.0741
     69 H         1.743105   -2.029082   -0.45494 H        1 UNL1     0.0359
     70 H         3.19984   -0.332783   -0.453283 H        1 UNL1     0.0600
     71 H         1.920743   1.040096   -1.54132 H        1 UNL1     0.0348
     72 H         2.63757   2.57752   0.206402 H        1 UNL1     0.0602
     73 H         0.41312   0.992072   4.433638 H        1 UNL1     0.0628
     74 H         3.458528   0.620211   4.21493 H        1 UNL1     0.1022
     75 H         0.973937   11.377127   0.724781 H        1 UNL1     0.0279
     76 H         0.011989   11.822899   2.077276 H        1 UNL1     0.0279
     77 H         1.759433   12.277597   1.954854 H        1 UNL1     0.0279
     78 H         -0.863764   10.358778   3.503186 H        1 UNL1     0.1553
     79 H         -1.126684   8.973265   2.111263 H        1 UNL1     0.1484
     80 H         -2.668903   5.514435   1.798925 H        1 UNL1     0.0317
     81 H         -2.701967   6.438311   3.294012 H        1 UNL1     0.0317
     82 H         -3.13519   8.566146   2.037692 H        1 UNL1     0.0428
     83 H         -4.338662   7.336262   1.720295 H        1 UNL1     0.0428
     84 H         -1.297555   7.826732   -1.214708 H        1 UNL1     0.0428
     85 H         -1.228665   8.888648   0.147905 H        1 UNL1     0.0428
     86 H         0.28656   6.906769   0.181107 H        1 UNL1     0.0317
     87 H         -1.002879   5.795273   0.115741 H        1 UNL1     0.0317
     88 H         -4.777653   8.598902   -0.012752 H        1 UNL1     0.0429
     89 H         -3.470997   9.395281   -0.892904 H        1 UNL1     0.0429
     90 H         -3.721518   6.730799   -1.97495 H        1 UNL1     0.0308
     91 H         -6.455653   8.119202   -1.967662 H        1 UNL1     0.0233
     92 H         -6.040426   6.49957   -2.584001 H        1 UNL1     0.0233
     93 H         -6.079041   6.804438   -0.860584 H        1 UNL1     0.0233
     94 H         -4.252287   7.88381   -4.032322 H        1 UNL1     0.0233
     95 H         -4.623212   9.369124   -3.143173 H        1 UNL1     0.0233
     96 H         -2.958297   8.74368   -3.172632 H        1 UNL1     0.0233
     97 H         1.249974   4.598823   9.694249 H        1 UNL1     0.0280
     98 H         2.93952   4.650094   9.269992 H        1 UNL1     0.0280
     99 H         2.157375   6.096527   9.97413 H        1 UNL1     0.0280
     100 H         1.472886   7.717958   9.442527 H        1 UNL1     0.2922
     101 H         4.35708   3.373966   0.059046 H        1 UNL1     0.0236
     102 H         4.70765   5.139047   0.225335 H        1 UNL1     0.0236
     103 H         4.051706   4.481915   -1.242116 H        1 UNL1     0.0236
     104 H         1.535564   2.555075   -2.170296 H        1 UNL1     0.2098
     105 H         -0.533736   1.64096   -0.182112 H        1 UNL1     0.0234
     106 H         -0.214964   0.570524   -1.57626 H        1 UNL1     0.0234
     107 H         0.0   -0.0   0.0 H        1 UNL1     0.0234
     108 H         3.71851   -0.308553   1.674294 H        1 UNL1     0.2098
     109 H         -1.602366   0.478681   1.590272 H        1 UNL1     0.0234
     110 H         -1.106772   0.943261   3.248993 H        1 UNL1     0.0234
     111 H         -0.075499   1.277594   1.902315 H        1 UNL1     0.0234
     112 H         0.033264   -4.672633   -1.578022 H        1 UNL1     0.0342
     113 H         0.196835   -2.983677   -2.177113 H        1 UNL1     0.0342
     114 H         1.064387   -3.506304   -0.730675 H        1 UNL1     0.0342
     115 H         2.961833   -3.511769   0.467553 H        1 UNL1     0.0234
     116 H         3.68592   -2.308012   1.538746 H        1 UNL1     0.0234
     117 H         2.269336   -3.273209   2.002783 H        1 UNL1     0.0234
     118 H         0.154775   1.310566   5.826976 H        1 UNL1     0.0309
     119 H         0.084576   2.388459   7.255709 H        1 UNL1     0.0309
     120 H         -0.557172   2.877261   5.702844 H        1 UNL1     0.0309
     121 H         3.437548   -2.23883   1.913081 H        1 UNL1     0.0524
     122 H         1.739109   -2.681761   1.698662 H        1 UNL1     0.0524
     123 H         2.264775   -1.014237   1.35693 H        1 UNL1     0.0524
@<TRIPOS>BOND
     1     1     2    1
     2     1    42    1
     3     2     3    2
     4     3     4    1
     5     4     5    2
     6     5     7    1
     7     6    75    1
     8     6    76    1
     9     6    77    1
    10     7     9   am
    11     9    10    1
    12    10    11    2
    13    10    43    1
    14    11    14    1
    15    11    15    1
    16    12    13   ar
    17    12    27   ar
    18    12    43    1
    19    13    14    1
    20    13    30   ar
    21    14    17    2
    22    15    16    1
    23    16    17    1
    24    16    18    1
    25    16    22    1
    26    18    19    1
    27    19    20    1
    28    20    21    1
    29    21    22    1
    30    23    24    1
    31    23    88    1
    32    23    89    1
    33    24    25    1
    34    24    26    1
    35    24    90    1
    36    25    91    1
    37    25    92    1
    38    25    93    1
    39    26    94    1
    40    26    95    1
    41    26    96    1
    42    27    28   ar
    43    28    29   ar
    44    29    30   ar
    45    29    31    1
    46    30    33    1
    47    31    32    1
    48    32    33    1
    49    32    35    1
    50    34    97    1
    51    34    98    1
    52    34    99    1
    53    35    61    1
    54    36    37    1
    55    36    60    1
    56    37    38    1
    57    38    39    1
    58    39    40    1
    59    40    41    1
    60    41    42    1
    61    45   100    1
    62    47   101    1
    63    47   102    1
    64    47   103    1
    65    48   104    1
    66    49   105    1
    67    49   106    1
    68    49   107    1
    69    50   108    1
    70    51    59    1
    71    52   109    1
    72    52   110    1
    73    52   111    1
    74    53    54    1
    75    54    55    2
    76    54    56    1
    77    56   112    1
    78    56   113    1
    79    56   114    1
    80    57   115    1
    81    57   116    1
    82    57   117    1
    83    58   118    1
    84    58   119    1
    85    58   120    1
    86    59   121    1
    87    59   122    1
    88    59   123    1
    89    60    61    2
    90     1    47    1
    91     1    62    1
    92     2    63    1
    93     3    64    1
    94     4    65    1
    95     5     6    1
    96     7     8    2
    97     9    78    1
    98    15    79    1
    99    18    80    1
   100    18    81    1
   101    19    82    1
   102    19    83    1
   103    20    23    1
   104    21    84    1
   105    21    85    1
   106    22    86    1
   107    22    87    1
   108    27    45    1
   109    28    34    1
   110    32    58    1
   111    33    46    2
   112    36    51    1
   113    36    66    1
   114    37    52    1
   115    37    67    1
   116    38    53    1
   117    38    68    1
   118    42    48    1
   119    42    72    1
   120    43    44    2
   121    60    73    1
   122    61    74    1
   123    39    69    1
   124    39    57    1
   125    40    70    1
   126    40    50    1
   127    41    71    1
   128    41    49    1
