@<TRIPOS>MOLECULE
*****
 123 128 0 0 0
SMALL
GASTEIGER

@<TRIPOS>ATOM
     1 C         0.186949   3.553569   3.336156 C.3        1 UNL1     0.0009
     2 C         -0.83692   4.967349   3.960619 C.2        1 UNL1     -0.0787
     3 C         -1.310045   6.329404   3.830217 C.2        1 UNL1     -0.0649
     4 C         -2.471694   7.122198   4.77277 C.2        1 UNL1     -0.0542
     5 C         -3.376987   8.210579   4.827066 C.2        1 UNL1     0.0115
     6 C         -3.80903   9.522376   4.115833 C.3        1 UNL1     -0.0348
     7 C         -4.562876   8.18144   5.908643 C.2        1 UNL1     0.2441
     8 O         -4.530411   8.823899   6.949181 O.2        1 UNL1     -0.2702
     9 N         -5.751442   7.577152   5.463336 N.am        1 UNL1     -0.2772
     10 C         -5.720197   6.222454   5.702374 C.2        1 UNL1     0.1049
     11 C         -5.087762   5.487618   4.805567 C.2        1 UNL1     0.0801
     12 C         -5.238243   4.533047   7.483093 C.ar        1 UNL1     0.0753
     13 C         -4.392369   3.883684   6.528403 C.ar        1 UNL1     0.0305
     14 C         -4.393957   4.267775   5.118608 C.2        1 UNL1     0.0924
     15 N         -4.64243   5.813947   3.580122 N.pl3        1 UNL1     -0.3170
     16 C         -4.179511   4.608503   2.945406 C.3        1 UNL1     0.1275
     17 N         -3.757675   3.717703   4.08832 N.2        1 UNL1     -0.2557
     18 C         -5.393466   3.936794   2.310723 C.3        1 UNL1     0.0016
     19 C         -6.059604   4.926561   1.368273 C.3        1 UNL1     0.0026
     20 N         -5.094425   5.329798   0.354934 N.3        1 UNL1     -0.3018
     21 C         -3.863756   5.931114   0.872856 C.3        1 UNL1     0.0026
     22 C         -3.208773   4.918092   1.813429 C.3        1 UNL1     0.0016
     23 C         -5.704154   6.031331   -0.757148 C.3        1 UNL1     0.0012
     24 C         -6.549896   5.067061   -1.603706 C.3        1 UNL1     -0.0339
     25 C         -7.132649   3.930473   -0.747772 C.3        1 UNL1     -0.0615
     26 C         -7.64002   5.833203   -2.332702 C.3        1 UNL1     -0.0615
     27 C         -5.32055   4.082658   8.798575 C.ar        1 UNL1     0.1347
     28 C         -4.637673   2.973192   9.264208 C.ar        1 UNL1     0.0342
     29 C         -3.773676   2.379356   8.319732 C.ar        1 UNL1     0.1435
     30 C         -3.653504   2.841554   7.008568 C.ar        1 UNL1     0.0774
     31 O         -3.123472   1.225737   8.586946 O.3        1 UNL1     -0.4436
     32 C         -2.758553   0.708299   7.29855 C.3        1 UNL1     0.3143
     33 C         -2.738091   1.912727   6.37923 C.2        1 UNL1     0.2504
     34 C         -4.867121   2.285166   10.58105 C.3        1 UNL1     -0.0327
     35 O         -1.409596   0.234954   7.396091 O.2        1 UNL1     -0.4528
     36 C         -1.127857   -2.623705   4.914805 C.3        1 UNL1     0.0854
     37 C         -1.40206   -2.625529   3.361636 C.3        1 UNL1     0.0236
     38 C         -0.182466   -3.14757   2.460632 C.3        1 UNL1     0.1131
     39 C         1.263317   -2.540242   2.668313 C.3        1 UNL1     0.0200
     40 C         1.469308   -0.896341   2.862212 C.3        1 UNL1     0.0661
     41 C         0.817085   0.31124   1.865235 C.3        1 UNL1     0.0091
     42 C         0.261081   2.013029   2.265454 C.3        1 UNL1     0.0661
     43 C         -6.093137   5.647121   7.003244 C.2        1 UNL1     0.2131
     44 O         -7.104699   6.013165   7.573764 O.2        1 UNL1     -0.2851
     45 O         -6.132404   4.798587   9.675945 O.3        1 UNL1     -0.5056
     46 O         -2.094174   2.077393   5.367247 O.2        1 UNL1     -0.2836
     47 C         1.690271   3.805022   3.630734 C.3        1 UNL1     -0.0566
     48 O         0.979144   2.637467   1.128098 O.3        1 UNL1     -0.3909
     49 C         -0.247046   -0.304979   0.98467 C.3        1 UNL1     -0.0577
     50 O         1.328114   -0.530284   4.220074 O.3        1 UNL1     -0.3910
     51 O         0.19572   -2.909574   5.307046 O.3        1 UNL1     -0.3753
     52 C         -2.299912   -1.421081   2.927911 C.3        1 UNL1     -0.0564
     53 O         -0.574534   -3.471387   1.048629 O.3        1 UNL1     -0.4608
     54 C         0.120799   -4.290847   0.198379 C.2        1 UNL1     0.3042
     55 O         1.303918   -4.618965   0.278418 O.2        1 UNL1     -0.2512
     56 C         -0.721264   -4.867118   -0.904143 C.3        1 UNL1     0.0332
     57 C         2.057214   -3.512854   3.659236 C.3        1 UNL1     -0.0567
     58 C         -3.906758   -0.231873   6.863545 C.3        1 UNL1     0.0210
     59 C         1.113471   -3.093842   4.230179 C.3        1 UNL1     0.0372
     60 C         -1.525118   -1.37584   5.622039 C.2        1 UNL1     -0.0208
     61 C         -0.877016   -0.659754   6.541783 C.2        1 UNL1     0.0882
     62 H         -0.194722   2.93836   4.159901 H        1 UNL1     0.0365
     63 H         -1.219495   4.545672   4.892442 H        1 UNL1     0.0576
     64 H         -1.057149   6.942607   2.962384 H        1 UNL1     0.0615
     65 H         -2.591127   6.470051   5.642208 H        1 UNL1     0.0622
     66 H         -1.779518   -3.415134   5.311067 H        1 UNL1     0.0645
     67 H         -2.140673   -3.433713   3.22075 H        1 UNL1     0.0362
     68 H         -0.117736   -4.185211   2.822063 H        1 UNL1     0.0741
     69 H         1.859136   -2.75196   1.790484 H        1 UNL1     0.0359
     70 H         2.555531   -0.815765   2.665523 H        1 UNL1     0.0600
     71 H         1.648898   0.437141   1.144683 H        1 UNL1     0.0348
     72 H         0.920305   1.707389   3.090877 H        1 UNL1     0.0602
     73 H         -2.533943   -1.145675   5.384246 H        1 UNL1     0.0628
     74 H         0.173906   -0.794189   6.800099 H        1 UNL1     0.1022
     75 H         -2.916627   10.146527   3.868672 H        1 UNL1     0.0279
     76 H         -4.293463   9.412697   3.148174 H        1 UNL1     0.0279
     77 H         -4.370701   10.199114   4.776326 H        1 UNL1     0.0279
     78 H         -5.84644   7.708797   4.458487 H        1 UNL1     0.1553
     79 H         -4.967324   6.610318   3.063237 H        1 UNL1     0.1484
     80 H         -5.065912   3.035434   1.778723 H        1 UNL1     0.0317
     81 H         -6.103773   3.60787   3.076832 H        1 UNL1     0.0317
     82 H         -6.455055   5.799663   1.907924 H        1 UNL1     0.0428
     83 H         -6.9236   4.427799   0.928048 H        1 UNL1     0.0428
     84 H         -3.123241   6.151423   0.09767 H        1 UNL1     0.0428
     85 H         -4.052225   6.904646   1.346175 H        1 UNL1     0.0428
     86 H         -2.251765   5.335039   2.066959 H        1 UNL1     0.0317
     87 H         -2.950138   4.006522   1.260939 H        1 UNL1     0.0317
     88 H         -6.363374   6.809188   -0.350132 H        1 UNL1     0.0429
     89 H         -4.948774   6.538741   -1.370915 H        1 UNL1     0.0429
     90 H         -5.918964   4.627373   -2.38525 H        1 UNL1     0.0308
     91 H         -6.500582   3.038286   -0.787709 H        1 UNL1     0.0233
     92 H         -7.241208   4.246816   0.292301 H        1 UNL1     0.0233
     93 H         -8.132518   3.627163   -1.081089 H        1 UNL1     0.0233
     94 H         -8.262543   5.143798   -2.913237 H        1 UNL1     0.0233
     95 H         -8.284493   6.343313   -1.611312 H        1 UNL1     0.0233
     96 H         -7.217561   6.575725   -3.01546 H        1 UNL1     0.0233
     97 H         -5.138466   1.241441   10.453609 H        1 UNL1     0.0280
     98 H         -3.968137   2.287187   11.211193 H        1 UNL1     0.0280
     99 H         -5.682488   2.79035   11.124245 H        1 UNL1     0.0280
     100 H         -5.991477   5.729023   9.668897 H        1 UNL1     0.2922
     101 H         2.009848   3.184128   4.467405 H        1 UNL1     0.0236
     102 H         1.92604   4.856917   3.788572 H        1 UNL1     0.0236
     103 H         2.334286   3.495674   2.79065 H        1 UNL1     0.0236
     104 H         1.806101   3.023472   1.477544 H        1 UNL1     0.2098
     105 H         -0.269267   -1.391746   1.000663 H        1 UNL1     0.0234
     106 H         -1.249649   0.095606   1.133816 H        1 UNL1     0.0234
     107 H         0.0   0.0   0.0 H        1 UNL1     0.0234
     108 H         1.870974   0.268859   4.363052 H        1 UNL1     0.2098
     109 H         -2.011233   -0.485886   3.427698 H        1 UNL1     0.0234
     110 H         -2.318381   -1.266532   1.843698 H        1 UNL1     0.0234
     111 H         -3.353188   -1.585985   3.191277 H        1 UNL1     0.0234
     112 H         -0.112956   -5.525517   -1.531692 H        1 UNL1     0.0342
     113 H         -1.595483   -5.39104   -0.52062 H        1 UNL1     0.0342
     114 H         -1.078271   -4.039011   -1.531798 H        1 UNL1     0.0342
     115 H         1.409451   -4.304464   4.060415 H        1 UNL1     0.0234
     116 H         2.924677   -3.996667   3.205936 H        1 UNL1     0.0234
     117 H         2.38975   -3.018428   4.588163 H        1 UNL1     0.0234
     118 H         -3.597935   -1.291888   6.865492 H        1 UNL1     0.0309
     119 H         -4.808178   -0.120332   7.474449 H        1 UNL1     0.0309
     120 H         -4.219617   -0.061863   5.827533 H        1 UNL1     0.0309
     121 H         0.649548   -2.692987   3.329375 H        1 UNL1     0.0524
     122 H         2.058575   -2.548005   4.387902 H        1 UNL1     0.0524
     123 H         1.333538   -4.149694   4.100406 H        1 UNL1     0.0524
@<TRIPOS>BOND
     1     1     2    1
     2     1    42    1
     3     2     3    2
     4     3     4    1
     5     4     5    2
     6     5     7    1
     7     6    75    1
     8     6    76    1
     9     6    77    1
    10     7     9   am
    11     9    10    1
    12    10    11    2
    13    10    43    1
    14    11    14    1
    15    11    15    1
    16    12    13   ar
    17    12    27   ar
    18    12    43    1
    19    13    14    1
    20    13    30   ar
    21    14    17    2
    22    15    16    1
    23    16    17    1
    24    16    18    1
    25    16    22    1
    26    18    19    1
    27    19    20    1
    28    20    21    1
    29    21    22    1
    30    23    24    1
    31    23    88    1
    32    23    89    1
    33    24    25    1
    34    24    26    1
    35    24    90    1
    36    25    91    1
    37    25    92    1
    38    25    93    1
    39    26    94    1
    40    26    95    1
    41    26    96    1
    42    27    28   ar
    43    28    29   ar
    44    29    30   ar
    45    29    31    1
    46    30    33    1
    47    31    32    1
    48    32    33    1
    49    32    35    1
    50    34    97    1
    51    34    98    1
    52    34    99    1
    53    35    61    1
    54    36    37    1
    55    36    60    1
    56    37    38    1
    57    38    39    1
    58    39    40    1
    59    40    41    1
    60    41    42    1
    61    45   100    1
    62    47   101    1
    63    47   102    1
    64    47   103    1
    65    48   104    1
    66    49   105    1
    67    49   106    1
    68    49   107    1
    69    50   108    1
    70    51    59    1
    71    52   109    1
    72    52   110    1
    73    52   111    1
    74    53    54    1
    75    54    55    2
    76    54    56    1
    77    56   112    1
    78    56   113    1
    79    56   114    1
    80    57   115    1
    81    57   116    1
    82    57   117    1
    83    58   118    1
    84    58   119    1
    85    58   120    1
    86    59   121    1
    87    59   122    1
    88    59   123    1
    89    60    61    2
    90     1    47    1
    91     1    62    1
    92     2    63    1
    93     3    64    1
    94     4    65    1
    95     5     6    1
    96     7     8    2
    97     9    78    1
    98    15    79    1
    99    18    80    1
   100    18    81    1
   101    19    82    1
   102    19    83    1
   103    20    23    1
   104    21    84    1
   105    21    85    1
   106    22    86    1
   107    22    87    1
   108    27    45    1
   109    28    34    1
   110    32    58    1
   111    33    46    2
   112    36    51    1
   113    36    66    1
   114    37    52    1
   115    37    67    1
   116    38    53    1
   117    38    68    1
   118    42    48    1
   119    42    72    1
   120    43    44    2
   121    60    73    1
   122    61    74    1
   123    39    69    1
   124    39    57    1
   125    40    70    1
   126    40    50    1
   127    41    71    1
   128    41    49    1
