@<TRIPOS>MOLECULE
*****
 123 128 0 0 0
SMALL
GASTEIGER

@<TRIPOS>ATOM
     1 C         3.01554   3.22714   3.239037 C.3        1 UNL1     0.0009
     2 C         4.006325   4.789577   3.358078 C.2        1 UNL1     -0.0787
     3 C         5.285723   5.466743   3.383247 C.2        1 UNL1     -0.0649
     4 C         5.580563   7.133821   3.399821 C.2        1 UNL1     -0.0542
     5 C         6.537723   8.146204   3.142904 C.2        1 UNL1     0.0115
     6 C         8.03462   8.407439   2.819828 C.3        1 UNL1     -0.0348
     7 C         6.037055   9.660564   2.961152 C.2        1 UNL1     0.2441
     8 O         6.13868   10.505066   3.840364 O.2        1 UNL1     -0.2702
     9 N         5.71448   10.019806   1.640909 N.am        1 UNL1     -0.2772
     10 C         4.397972   9.724469   1.370905 C.2        1 UNL1     0.1049
     11 C         4.140681   8.476218   1.024646 C.2        1 UNL1     0.0801
     12 C         2.079809   9.993063   2.271634 C.ar        1 UNL1     0.0753
     13 C         1.922275   8.584933   2.069249 C.ar        1 UNL1     0.0305
     14 C         2.902708   7.805693   1.316527 C.2        1 UNL1     0.0924
     15 N         4.980643   7.483044   0.686122 N.pl3        1 UNL1     -0.3170
     16 C         4.187231   6.37322   0.22891 C.3        1 UNL1     0.1275
     17 N         2.870521   6.527548   0.950145 N.2        1 UNL1     -0.2557
     18 C         3.890546   6.608009   -1.249113 C.3        1 UNL1     0.0016
     19 C         5.207826   6.78439   -1.987524 C.3        1 UNL1     0.0026
     20 N         6.013933   5.586221   -1.798815 N.3        1 UNL1     -0.3018
     21 C         6.300477   5.242919   -0.404396 C.3        1 UNL1     0.0026
     22 C         4.963447   5.065849   0.317333 C.3        1 UNL1     0.0016
     23 C         7.150259   5.523901   -2.696325 C.3        1 UNL1     0.0012
     24 C         6.684004   5.272828   -4.139005 C.3        1 UNL1     -0.0339
     25 C         6.575123   6.585962   -4.931394 C.3        1 UNL1     -0.0615
     26 C         7.612354   4.283375   -4.821594 C.3        1 UNL1     -0.0615
     27 C         1.083978   10.750024   2.884373 C.ar        1 UNL1     0.1347
     28 C         -0.124487   10.219436   3.299272 C.ar        1 UNL1     0.0342
     29 C         -0.237354   8.822589   3.134219 C.ar        1 UNL1     0.1435
     30 C         0.766582   8.045533   2.554982 C.ar        1 UNL1     0.0774
     31 O         -1.395   8.1742   3.388099 O.3        1 UNL1     -0.4436
     32 C         -1.277926   6.931745   2.67854 C.3        1 UNL1     0.3143
     33 C         0.211773   6.70866   2.513481 C.2        1 UNL1     0.2504
     34 C         -1.331003   11.005751   3.730698 C.3        1 UNL1     -0.0327
     35 O         -1.760884   5.898606   3.546082 O.2        1 UNL1     -0.4528
     36 C         -3.190619   3.215382   1.273583 C.3        1 UNL1     0.0854
     37 C         -2.486038   2.414371   0.111916 C.3        1 UNL1     0.0236
     38 C         -2.558974   0.818377   0.250572 C.3        1 UNL1     0.1131
     39 C         -2.129357   0.127701   1.607284 C.3        1 UNL1     0.0200
     40 C         -0.75382   0.624309   2.409603 C.3        1 UNL1     0.0661
     41 C         0.782182   0.824598   1.718088 C.3        1 UNL1     0.0091
     42 C         2.125439   2.006001   2.12472 C.3        1 UNL1     0.0661
     43 C         3.300951   10.636717   1.726857 C.2        1 UNL1     0.2131
     44 O         3.381747   11.826396   1.480134 O.2        1 UNL1     -0.2851
     45 O         1.335431   12.105799   3.08458 O.3        1 UNL1     -0.5056
     46 O         0.808525   5.661729   2.396534 O.2        1 UNL1     -0.2836
     47 C         3.087795   2.439672   4.574947 C.3        1 UNL1     -0.0566
     48 O         3.187972   0.971552   2.132271 O.3        1 UNL1     -0.3909
     49 C         0.644376   0.814536   0.211967 C.3        1 UNL1     -0.0577
     50 O         -1.040088   1.706553   3.27246 O.3        1 UNL1     -0.3910
     51 O         -3.639444   2.44742   2.367301 O.3        1 UNL1     -0.3753
     52 C         -1.20465   3.146086   -0.405371 C.3        1 UNL1     -0.0564
     53 O         -2.203922   0.089005   -1.012076 O.3        1 UNL1     -0.4608
     54 C         -1.818861   -1.223818   -1.090515 C.2        1 UNL1     0.3042
     55 O         -0.70761   -1.659664   -1.388841 O.2        1 UNL1     -0.2512
     56 C         -2.900779   -2.191964   -0.704692 C.3        1 UNL1     0.0332
     57 C         -3.454862   -0.101945   2.472428 C.3        1 UNL1     -0.0567
     58 C         -1.905165   7.163576   1.284139 C.3        1 UNL1     0.0210
     59 C         -4.739658   3.008153   3.082125 C.3        1 UNL1     0.0372
     60 C         -2.393011   4.338836   1.836463 C.2        1 UNL1     -0.0208
     61 C         -2.178719   4.697293   3.103085 C.2        1 UNL1     0.0882
     62 H         2.098968   3.827973   3.279122 H        1 UNL1     0.0365
     63 H         3.213428   5.521021   3.527706 H        1 UNL1     0.0576
     64 H         6.222055   4.927458   3.223361 H        1 UNL1     0.0615
     65 H         4.607122   7.568228   3.643103 H        1 UNL1     0.0622
     66 H         -4.067537   3.676962   0.798182 H        1 UNL1     0.0645
     67 H         -3.133759   2.588327   -0.764873 H        1 UNL1     0.0362
     68 H         -3.648568   0.677533   0.183711 H        1 UNL1     0.0741
     69 H         -1.928326   -0.918141   1.416993 H        1 UNL1     0.0359
     70 H         -0.606458   -0.238278   3.087311 H        1 UNL1     0.0600
     71 H         1.210164   -0.18008   1.903584 H        1 UNL1     0.0348
     72 H         1.471221   1.974904   3.008092 H        1 UNL1     0.0602
     73 H         -2.067652   4.96714   1.044867 H        1 UNL1     0.0628
     74 H         -2.428527   4.082687   3.968587 H        1 UNL1     0.1022
     75 H         8.589666   7.442932   2.726633 H        1 UNL1     0.0279
     76 H         8.248392   8.893411   1.870512 H        1 UNL1     0.0279
     77 H         8.571669   8.887175   3.651172 H        1 UNL1     0.0279
     78 H         6.287735   9.485546   0.991277 H        1 UNL1     0.1553
     79 H         5.928673   7.631165   0.392469 H        1 UNL1     0.1484
     80 H         3.323481   5.754502   -1.63992 H        1 UNL1     0.0317
     81 H         3.259408   7.492674   -1.385801 H        1 UNL1     0.0317
     82 H         5.747075   7.681541   -1.649524 H        1 UNL1     0.0428
     83 H         4.973018   6.952329   -3.039053 H        1 UNL1     0.0428
     84 H         6.838496   4.297082   -0.287182 H        1 UNL1     0.0428
     85 H         6.956721   5.984026   0.072492 H        1 UNL1     0.0428
     86 H         5.208627   4.68756   1.292408 H        1 UNL1     0.0317
     87 H         4.397407   4.244392   -0.138632 H        1 UNL1     0.0317
     88 H         7.66787   6.491388   -2.659693 H        1 UNL1     0.0429
     89 H         7.871054   4.761145   -2.374716 H        1 UNL1     0.0429
     90 H         5.697853   4.793932   -4.119569 H        1 UNL1     0.0308
     91 H         7.52773   7.124035   -4.942354 H        1 UNL1     0.0233
     92 H         6.261072   6.391761   -5.959629 H        1 UNL1     0.0233
     93 H         5.828896   7.268849   -4.507546 H        1 UNL1     0.0233
     94 H         7.402111   4.247543   -5.896001 H        1 UNL1     0.0233
     95 H         8.652252   4.595998   -4.691818 H        1 UNL1     0.0233
     96 H         7.492805   3.276321   -4.412304 H        1 UNL1     0.0233
     97 H         -2.174025   10.362632   3.965093 H        1 UNL1     0.0280
     98 H         -1.139439   11.592898   4.638342 H        1 UNL1     0.0280
     99 H         -1.633474   11.690962   2.921938 H        1 UNL1     0.0280
     100 H         0.679191   12.681732   2.733478 H        1 UNL1     0.2922
     101 H         2.468288   1.545541   4.508648 H        1 UNL1     0.0236
     102 H         2.837981   3.046771   5.444434 H        1 UNL1     0.0236
     103 H         4.10366   2.061826   4.778524 H        1 UNL1     0.0236
     104 H         3.302744   0.67335   3.055783 H        1 UNL1     0.2098
     105 H         0.193706   1.712231   -0.203788 H        1 UNL1     0.0234
     106 H         1.558406   0.566178   -0.327286 H        1 UNL1     0.0234
     107 H         0.0   0.0   -0.0 H        1 UNL1     0.0234
     108 H         -1.298517   2.463662   2.712309 H        1 UNL1     0.2098
     109 H         -0.463488   3.300251   0.391262 H        1 UNL1     0.0234
     110 H         -0.731539   2.638256   -1.252731 H        1 UNL1     0.0234
     111 H         -1.438361   4.147126   -0.791691 H        1 UNL1     0.0234
     112 H         -2.523095   -3.21696   -0.768593 H        1 UNL1     0.0342
     113 H         -3.301779   -1.984401   0.286247 H        1 UNL1     0.0342
     114 H         -3.724347   -2.091002   -1.424905 H        1 UNL1     0.0342
     115 H         -4.18345   -0.732045   1.943919 H        1 UNL1     0.0234
     116 H         -3.274649   -0.556546   3.4486 H        1 UNL1     0.0234
     117 H         -4.043097   0.81863   2.628828 H        1 UNL1     0.0234
     118 H         -3.003858   7.055835   1.300639 H        1 UNL1     0.0309
     119 H         -1.647106   8.136187   0.853285 H        1 UNL1     0.0309
     120 H         -1.588829   6.413585   0.55096 H        1 UNL1     0.0309
     121 H         -4.41232   3.961409   3.496264 H        1 UNL1     0.0524
     122 H         -5.604378   3.20973   2.428166 H        1 UNL1     0.0524
     123 H         -5.04945   2.339366   3.880152 H        1 UNL1     0.0524
@<TRIPOS>BOND
     1     1     2    1
     2     1    42    1
     3     2     3    2
     4     3     4    1
     5     4     5    2
     6     5     7    1
     7     6    75    1
     8     6    76    1
     9     6    77    1
    10     7     9   am
    11     9    10    1
    12    10    11    2
    13    10    43    1
    14    11    14    1
    15    11    15    1
    16    12    13   ar
    17    12    27   ar
    18    12    43    1
    19    13    14    1
    20    13    30   ar
    21    14    17    2
    22    15    16    1
    23    16    17    1
    24    16    18    1
    25    16    22    1
    26    18    19    1
    27    19    20    1
    28    20    21    1
    29    21    22    1
    30    23    24    1
    31    23    88    1
    32    23    89    1
    33    24    25    1
    34    24    26    1
    35    24    90    1
    36    25    91    1
    37    25    92    1
    38    25    93    1
    39    26    94    1
    40    26    95    1
    41    26    96    1
    42    27    28   ar
    43    28    29   ar
    44    29    30   ar
    45    29    31    1
    46    30    33    1
    47    31    32    1
    48    32    33    1
    49    32    35    1
    50    34    97    1
    51    34    98    1
    52    34    99    1
    53    35    61    1
    54    36    37    1
    55    36    60    1
    56    37    38    1
    57    38    39    1
    58    39    40    1
    59    40    41    1
    60    41    42    1
    61    45   100    1
    62    47   101    1
    63    47   102    1
    64    47   103    1
    65    48   104    1
    66    49   105    1
    67    49   106    1
    68    49   107    1
    69    50   108    1
    70    51    59    1
    71    52   109    1
    72    52   110    1
    73    52   111    1
    74    53    54    1
    75    54    55    2
    76    54    56    1
    77    56   112    1
    78    56   113    1
    79    56   114    1
    80    57   115    1
    81    57   116    1
    82    57   117    1
    83    58   118    1
    84    58   119    1
    85    58   120    1
    86    59   121    1
    87    59   122    1
    88    59   123    1
    89    60    61    2
    90     1    47    1
    91     1    62    1
    92     2    63    1
    93     3    64    1
    94     4    65    1
    95     5     6    1
    96     7     8    2
    97     9    78    1
    98    15    79    1
    99    18    80    1
   100    18    81    1
   101    19    82    1
   102    19    83    1
   103    20    23    1
   104    21    84    1
   105    21    85    1
   106    22    86    1
   107    22    87    1
   108    27    45    1
   109    28    34    1
   110    32    58    1
   111    33    46    2
   112    36    51    1
   113    36    66    1
   114    37    52    1
   115    37    67    1
   116    38    53    1
   117    38    68    1
   118    42    48    1
   119    42    72    1
   120    43    44    2
   121    60    73    1
   122    61    74    1
   123    39    69    1
   124    39    57    1
   125    40    70    1
   126    40    50    1
   127    41    71    1
   128    41    49    1
