@<TRIPOS>MOLECULE
*****
 123 128 0 0 0
SMALL
GASTEIGER

@<TRIPOS>ATOM
     1 C         5.312891   1.145366   0.505341 C.3        1 UNL1     0.0009
     2 C         6.878383   1.61593   -0.369212 C.2        1 UNL1     -0.0787
     3 C         8.141355   1.243846   -0.971293 C.2        1 UNL1     -0.0649
     4 C         9.222274   2.234228   -1.81812 C.2        1 UNL1     -0.0542
     5 C         10.295677   2.257122   -2.742435 C.2        1 UNL1     0.0115
     6 C         11.326163   1.369998   -3.493722 C.3        1 UNL1     -0.0348
     7 C         10.6418   3.631015   -3.497159 C.2        1 UNL1     0.2441
     8 O         11.57931   4.348487   -3.176483 O.2        1 UNL1     -0.2702
     9 N         9.959603   3.824252   -4.711004 N.am        1 UNL1     -0.2772
     10 C         8.749756   4.440943   -4.489002 C.2        1 UNL1     0.1049
     11 C         7.75238   3.653453   -4.129386 C.2        1 UNL1     0.0801
     12 C         7.698165   6.377662   -3.305529 C.ar        1 UNL1     0.0753
     13 C         6.757839   5.439956   -2.77158 C.ar        1 UNL1     0.0305
     14 C         6.676153   4.06935   -3.271399 C.2        1 UNL1     0.0924
     15 N         7.662316   2.312475   -4.143293 N.pl3        1 UNL1     -0.3170
     16 C         6.306101   1.95976   -3.816909 C.3        1 UNL1     0.1275
     17 N         5.811659   3.105296   -2.967793 N.2        1 UNL1     -0.2557
     18 C         5.500742   2.013886   -5.111579 C.3        1 UNL1     0.0016
     19 C         6.158958   1.099372   -6.132366 C.3        1 UNL1     0.0026
     20 N         6.195056   -0.25333   -5.593923 N.3        1 UNL1     -0.3018
     21 C         6.896281   -0.395408   -4.316243 C.3        1 UNL1     0.0026
     22 C         6.215716   0.528351   -3.304613 C.3        1 UNL1     0.0016
     23 C         6.524783   -1.249609   -6.593599 C.3        1 UNL1     0.0012
     24 C         5.365156   -1.419514   -7.587658 C.3        1 UNL1     -0.0339
     25 C         5.585159   -0.580409   -8.857129 C.3        1 UNL1     -0.0615
     26 C         5.171817   -2.889763   -7.915938 C.3        1 UNL1     -0.0615
     27 C         7.689386   7.713234   -2.910196 C.ar        1 UNL1     0.1347
     28 C         6.766386   8.234733   -2.021286 C.ar        1 UNL1     0.0342
     29 C         5.881464   7.282945   -1.47158 C.ar        1 UNL1     0.1435
     30 C         5.901796   5.934721   -1.830882 C.ar        1 UNL1     0.0774
     31 O         4.854701   7.652644   -0.675285 O.3        1 UNL1     -0.4436
     32 C         3.946744   6.541374   -0.714841 C.3        1 UNL1     0.3143
     33 C         4.797525   5.348224   -1.100558 C.2        1 UNL1     0.2504
     34 C         6.536616   9.694308   -1.743893 C.3        1 UNL1     -0.0327
     35 O         3.492763   6.314313   0.625158 O.2        1 UNL1     -0.4528
     36 C         -0.01044   4.887461   0.309328 C.3        1 UNL1     0.0854
     37 C         -0.496163   3.600233   -0.4618 C.3        1 UNL1     0.0236
     38 C         -1.308736   2.544195   0.43053 C.3        1 UNL1     0.1131
     39 C         -0.705682   2.051269   1.807346 C.3        1 UNL1     0.0200
     40 C         0.909031   1.650315   1.927242 C.3        1 UNL1     0.0661
     41 C         1.756176   0.615896   0.883243 C.3        1 UNL1     0.0091
     42 C         3.511368   0.639791   0.350204 C.3        1 UNL1     0.0661
     43 C         8.625624   5.900607   -4.361226 C.2        1 UNL1     0.2131
     44 O         9.180181   6.639808   -5.154187 O.2        1 UNL1     -0.2851
     45 O         8.667468   8.550241   -3.443312 O.3        1 UNL1     -0.5056
     46 O         4.616386   4.179017   -0.843657 O.2        1 UNL1     -0.2836
     47 C         5.604431   0.8191   1.994816 C.3        1 UNL1     -0.0566
     48 O         3.724584   -0.806877   0.596798 O.3        1 UNL1     -0.3909
     49 C         0.921663   0.383455   -0.356537 C.3        1 UNL1     -0.0577
     50 O         1.689445   2.793622   2.212768 O.3        1 UNL1     -0.3910
     51 O         -0.192744   4.87367   1.707186 O.3        1 UNL1     -0.3753
     52 C         0.532731   3.151127   -1.550206 C.3        1 UNL1     -0.0564
     53 O         -2.052   1.521152   -0.37772 O.3        1 UNL1     -0.4608
     54 C         -2.501248   0.313178   0.08801 C.2        1 UNL1     0.3042
     55 O         -2.091711   -0.805308   -0.220386 O.2        1 UNL1     -0.2512
     56 C         -3.576667   0.432649   1.130083 C.3        1 UNL1     0.0332
     57 C         -1.335705   2.960187   2.962817 C.3        1 UNL1     -0.0567
     58 C         2.948218   6.832886   -1.859174 C.3        1 UNL1     0.0210
     59 C         -0.327127   6.16138   2.30686 C.3        1 UNL1     0.0372
     60 C         1.407189   5.269342   0.065084 C.2        1 UNL1     -0.0208
     61 C         2.359891   5.647517   0.918365 C.2        1 UNL1     0.0882
     62 H         5.000253   2.195964   0.470502 H        1 UNL1     0.0365
     63 H         6.783478   2.703681   -0.385396 H        1 UNL1     0.0576
     64 H         8.441579   0.198452   -1.071914 H        1 UNL1     0.0615
     65 H         8.882068   3.247588   -1.588243 H        1 UNL1     0.0622
     66 H         -0.618207   5.703719   -0.10587 H        1 UNL1     0.0645
     67 H         -1.287413   3.973571   -1.134928 H        1 UNL1     0.0362
     68 H         -2.180103   3.161253   0.697889 H        1 UNL1     0.0741
     69 H         -1.200018   1.132942   2.09495 H        1 UNL1     0.0359
     70 H         0.894255   1.081381   2.876535 H        1 UNL1     0.0600
     71 H         1.625454   -0.346204   1.416377 H        1 UNL1     0.0348
     72 H         3.465059   1.243139   1.268431 H        1 UNL1     0.0602
     73 H         1.577133   5.330488   -0.981161 H        1 UNL1     0.0628
     74 H         2.286097   5.560994   2.002941 H        1 UNL1     0.1022
     75 H         11.170066   0.292371   -3.245959 H        1 UNL1     0.0279
     76 H         11.267079   1.371603   -4.579805 H        1 UNL1     0.0279
     77 H         12.35698   1.525912   -3.14328 H        1 UNL1     0.0279
     78 H         9.769114   2.922769   -5.143576 H        1 UNL1     0.1553
     79 H         8.262655   1.719532   -4.686379 H        1 UNL1     0.1484
     80 H         4.468984   1.705433   -4.903981 H        1 UNL1     0.0317
     81 H         5.450112   3.037336   -5.498409 H        1 UNL1     0.0317
     82 H         7.168151   1.446369   -6.398891 H        1 UNL1     0.0428
     83 H         5.569781   1.154448   -7.048274 H        1 UNL1     0.0428
     84 H         6.840236   -1.403946   -3.894911 H        1 UNL1     0.0428
     85 H         7.974207   -0.208525   -4.418552 H        1 UNL1     0.0428
     86 H         6.665774   0.300691   -2.356137 H        1 UNL1     0.0317
     87 H         5.169633   0.22824   -3.167719 H        1 UNL1     0.0317
     88 H         7.408735   -0.90169   -7.143941 H        1 UNL1     0.0429
     89 H         6.791653   -2.207576   -6.128998 H        1 UNL1     0.0429
     90 H         4.432911   -1.09392   -7.111085 H        1 UNL1     0.0308
     91 H         6.528681   -0.839647   -9.346684 H        1 UNL1     0.0233
     92 H         4.763574   -0.724601   -9.562689 H        1 UNL1     0.0233
     93 H         5.621468   0.495149   -8.645721 H        1 UNL1     0.0233
     94 H         4.482966   -3.000817   -8.760323 H        1 UNL1     0.0233
     95 H         6.128055   -3.338115   -8.199753 H        1 UNL1     0.0233
     96 H         4.763916   -3.438868   -7.062669 H        1 UNL1     0.0233
     97 H         5.724217   9.852489   -1.040888 H        1 UNL1     0.0280
     98 H         7.417522   10.174521   -1.298184 H        1 UNL1     0.0280
     99 H         6.286552   10.213631   -2.683503 H        1 UNL1     0.0280
     100 H         8.334611   9.32589   -3.859484 H        1 UNL1     0.2922
     101 H         4.671186   0.597609   2.512166 H        1 UNL1     0.0236
     102 H         6.177448   1.596147   2.499627 H        1 UNL1     0.0236
     103 H         6.210699   -0.095194   2.107506 H        1 UNL1     0.0236
     104 H         4.099508   -0.900979   1.494321 H        1 UNL1     0.2098
     105 H         0.70865   1.282381   -0.929571 H        1 UNL1     0.0234
     106 H         1.291012   -0.40433   -1.01297 H        1 UNL1     0.0234
     107 H         0.0   -0.0   0.0 H        1 UNL1     0.0234
     108 H         1.628568   3.386938   1.439439 H        1 UNL1     0.2098
     109 H         1.52105   2.931355   -1.122844 H        1 UNL1     0.0234
     110 H         0.189432   2.293918   -2.139344 H        1 UNL1     0.0234
     111 H         0.700425   3.937888   -2.297757 H        1 UNL1     0.0234
     112 H         -3.87457   -0.562754   1.473263 H        1 UNL1     0.0342
     113 H         -3.268786   1.058362   1.966466 H        1 UNL1     0.0342
     114 H         -4.453254   0.905164   0.665875 H        1 UNL1     0.0342
     115 H         -2.431933   2.889856   2.98574 H        1 UNL1     0.0234
     116 H         -0.970395   2.722128   3.963779 H        1 UNL1     0.0234
     117 H         -1.195006   4.042204   2.797334 H        1 UNL1     0.0234
     118 H         2.128186   7.497165   -1.534695 H        1 UNL1     0.0309
     119 H         3.425086   7.260006   -2.747075 H        1 UNL1     0.0309
     120 H         2.424526   5.932886   -2.199545 H        1 UNL1     0.0309
     121 H         0.599305   6.706533   2.128286 H        1 UNL1     0.0524
     122 H         -1.148168   6.746998   1.860788 H        1 UNL1     0.0524
     123 H         -0.504025   6.062373   3.374099 H        1 UNL1     0.0524
@<TRIPOS>BOND
     1     1     2    1
     2     1    42    1
     3     2     3    2
     4     3     4    1
     5     4     5    2
     6     5     7    1
     7     6    75    1
     8     6    76    1
     9     6    77    1
    10     7     9   am
    11     9    10    1
    12    10    11    2
    13    10    43    1
    14    11    14    1
    15    11    15    1
    16    12    13   ar
    17    12    27   ar
    18    12    43    1
    19    13    14    1
    20    13    30   ar
    21    14    17    2
    22    15    16    1
    23    16    17    1
    24    16    18    1
    25    16    22    1
    26    18    19    1
    27    19    20    1
    28    20    21    1
    29    21    22    1
    30    23    24    1
    31    23    88    1
    32    23    89    1
    33    24    25    1
    34    24    26    1
    35    24    90    1
    36    25    91    1
    37    25    92    1
    38    25    93    1
    39    26    94    1
    40    26    95    1
    41    26    96    1
    42    27    28   ar
    43    28    29   ar
    44    29    30   ar
    45    29    31    1
    46    30    33    1
    47    31    32    1
    48    32    33    1
    49    32    35    1
    50    34    97    1
    51    34    98    1
    52    34    99    1
    53    35    61    1
    54    36    37    1
    55    36    60    1
    56    37    38    1
    57    38    39    1
    58    39    40    1
    59    40    41    1
    60    41    42    1
    61    45   100    1
    62    47   101    1
    63    47   102    1
    64    47   103    1
    65    48   104    1
    66    49   105    1
    67    49   106    1
    68    49   107    1
    69    50   108    1
    70    51    59    1
    71    52   109    1
    72    52   110    1
    73    52   111    1
    74    53    54    1
    75    54    55    2
    76    54    56    1
    77    56   112    1
    78    56   113    1
    79    56   114    1
    80    57   115    1
    81    57   116    1
    82    57   117    1
    83    58   118    1
    84    58   119    1
    85    58   120    1
    86    59   121    1
    87    59   122    1
    88    59   123    1
    89    60    61    2
    90     1    47    1
    91     1    62    1
    92     2    63    1
    93     3    64    1
    94     4    65    1
    95     5     6    1
    96     7     8    2
    97     9    78    1
    98    15    79    1
    99    18    80    1
   100    18    81    1
   101    19    82    1
   102    19    83    1
   103    20    23    1
   104    21    84    1
   105    21    85    1
   106    22    86    1
   107    22    87    1
   108    27    45    1
   109    28    34    1
   110    32    58    1
   111    33    46    2
   112    36    51    1
   113    36    66    1
   114    37    52    1
   115    37    67    1
   116    38    53    1
   117    38    68    1
   118    42    48    1
   119    42    72    1
   120    43    44    2
   121    60    73    1
   122    61    74    1
   123    39    69    1
   124    39    57    1
   125    40    70    1
   126    40    50    1
   127    41    71    1
   128    41    49    1
