@<TRIPOS>MOLECULE
*****
 123 128 0 0 0
SMALL
GASTEIGER

@<TRIPOS>ATOM
     1 C         -3.021538   -1.962141   -2.477664 C.3        1 UNL1     0.0009
     2 C         -3.067667   -2.428369   -4.271415 C.2        1 UNL1     -0.0787
     3 C         -3.308271   -2.076237   -5.654946 C.2        1 UNL1     -0.0649
     4 C         -3.034775   -3.022187   -7.032166 C.2        1 UNL1     -0.0542
     5 C         -2.844644   -3.001473   -8.435911 C.2        1 UNL1     0.0115
     6 C         -2.917142   -2.102337   -9.700673 C.3        1 UNL1     -0.0348
     7 C         -2.191309   -4.281987   -9.150351 C.2        1 UNL1     0.2441
     8 O         -2.849578   -5.106812   -9.769117 O.2        1 UNL1     -0.2702
     9 N         -0.788734   -4.254306   -9.240739 N.am        1 UNL1     -0.2772
     10 C         -0.223867   -4.800199   -8.111028 C.2        1 UNL1     0.1049
     11 C         -0.107356   -3.994528   -7.071056 C.2        1 UNL1     0.0801
     12 C         -0.333289   -6.79333   -6.603451 C.ar        1 UNL1     0.0753
     13 C         -0.415344   -5.867525   -5.514983 C.ar        1 UNL1     0.0305
     14 C         -0.172334   -4.439316   -5.70529 C.2        1 UNL1     0.0924
     15 N         -0.257363   -2.661308   -6.990117 N.pl3        1 UNL1     -0.3170
     16 C         0.148143   -2.252757   -5.671441 C.3        1 UNL1     0.1275
     17 N         -0.108736   -3.461885   -4.805562 N.2        1 UNL1     -0.2557
     18 C         1.662197   -2.067131   -5.701173 C.3        1 UNL1     0.0016
     19 C         2.009089   -1.075367   -6.800108 C.3        1 UNL1     0.0026
     20 N         1.332094   0.184232   -6.524212 N.3        1 UNL1     -0.3018
     21 C         -0.125556   0.095834   -6.415532 C.3        1 UNL1     0.0026
     22 C         -0.451376   -0.902083   -5.302924 C.3        1 UNL1     0.0016
     23 C         1.825734   1.279245   -7.335328 C.3        1 UNL1     0.0012
     24 C         0.656277   2.099795   -7.901741 C.3        1 UNL1     -0.0339
     25 C         -0.647847   1.823157   -7.13572 C.3        1 UNL1     -0.0615
     26 C         1.005737   3.577838   -7.895039 C.3        1 UNL1     -0.0615
     27 C         -0.446555   -8.165676   -6.393799 C.ar        1 UNL1     0.1347
     28 C         -0.603161   -8.730822   -5.140749 C.ar        1 UNL1     0.0342
     29 C         -0.730321   -7.797544   -4.090041 C.ar        1 UNL1     0.1435
     30 C         -0.655087   -6.418516   -4.289648 C.ar        1 UNL1     0.0774
     31 O         -0.778133   -8.192103   -2.798901 O.3        1 UNL1     -0.4436
     32 C         -0.430149   -7.019045   -2.048092 C.3        1 UNL1     0.3143
     33 C         -0.756306   -5.853728   -2.960161 C.2        1 UNL1     0.2504
     34 C         -0.480291   -10.192449   -4.811128 C.3        1 UNL1     -0.0327
     35 O         -1.330127   -6.942766   -0.935674 O.2        1 UNL1     -0.4528
     36 C         0.595715   -5.219771   1.844706 C.3        1 UNL1     0.0854
     37 C         1.294082   -3.805626   1.844816 C.3        1 UNL1     0.0236
     38 C         0.828023   -2.821783   3.02235 C.3        1 UNL1     0.1131
     39 C         -0.713728   -2.569637   3.270733 C.3        1 UNL1     0.0200
     40 C         -1.74597   -2.314794   1.985443 C.3        1 UNL1     0.0661
     41 C         -1.500466   -1.216038   0.716557 C.3        1 UNL1     0.0091
     42 C         -2.001454   -1.30244   -1.046097 C.3        1 UNL1     0.0661
     43 C         -0.03408   -6.249638   -7.951461 C.2        1 UNL1     0.2131
     44 O         0.439154   -6.914208   -8.855416 O.2        1 UNL1     -0.2851
     45 O         -0.40131   -8.99506   -7.51251 O.3        1 UNL1     -0.5056
     46 O         -1.054462   -4.720107   -2.657076 O.2        1 UNL1     -0.2836
     47 C         -4.462547   -1.865909   -1.908267 C.3        1 UNL1     -0.0566
     48 O         -2.547068   0.07614   -1.076728 O.3        1 UNL1     -0.3909
     49 C         -0.061019   -0.75264   0.743929 C.3        1 UNL1     -0.0577
     50 O         -2.22378   -3.543237   1.4752 O.3        1 UNL1     -0.3910
     51 O         -0.465155   -5.383014   2.758674 O.3        1 UNL1     -0.3753
     52 C         1.570076   -3.292906   0.393646 C.3        1 UNL1     -0.0564
     53 O         1.737291   -1.643579   3.215726 O.3        1 UNL1     -0.4608
     54 C         2.444778   -1.014185   2.225143 C.2        1 UNL1     0.3042
     55 O         2.805205   -1.487928   1.148342 O.2        1 UNL1     -0.2512
     56 C         2.73663   0.429811   2.519098 C.3        1 UNL1     0.0332
     57 C         -1.188164   -3.576452   4.419389 C.3        1 UNL1     -0.0567
     58 C         1.100763   -7.073473   -1.836252 C.3        1 UNL1     0.0210
     59 C         -1.443515   -6.348222   2.375204 C.3        1 UNL1     0.0372
     60 C         0.093697   -5.673091   0.518946 C.2        1 UNL1     -0.0208
     61 C         -1.066725   -6.236752   0.180637 C.2        1 UNL1     0.0882
     62 H         -2.659648   -2.970804   -2.244541 H        1 UNL1     0.0365
     63 H         -2.832738   -3.493097   -4.211132 H        1 UNL1     0.0576
     64 H         -3.55054   -1.053249   -5.951443 H        1 UNL1     0.0615
     65 H         -2.882957   -4.028105   -6.631463 H        1 UNL1     0.0622
     66 H         1.394758   -5.922236   2.120603 H        1 UNL1     0.0645
     67 H         2.336107   -4.02125   2.138499 H        1 UNL1     0.0362
     68 H         1.172995   -3.400388   3.892829 H        1 UNL1     0.0741
     69 H         -0.82921   -1.663781   3.850818 H        1 UNL1     0.0359
     70 H         -2.612822   -1.881444   2.52008 H        1 UNL1     0.0600
     71 H         -2.02198   -0.328586   1.125716 H        1 UNL1     0.0348
     72 H         -2.641971   -2.020166   -0.513252 H        1 UNL1     0.0602
     73 H         0.877629   -5.603691   -0.193714 H        1 UNL1     0.0628
     74 H         -1.938173   -6.293755   0.833757 H        1 UNL1     0.1022
     75 H         -1.892649   -1.798466   -10.024879 H        1 UNL1     0.0279
     76 H         -3.320817   -2.561856   -10.600094 H        1 UNL1     0.0279
     77 H         -3.38037   -1.124853   -9.50156 H        1 UNL1     0.0279
     78 H         -0.469261   -3.290185   -9.30771 H        1 UNL1     0.1553
     79 H         -0.224284   -2.047912   -7.78358 H        1 UNL1     0.1484
     80 H         1.998094   -1.711137   -4.719741 H        1 UNL1     0.0317
     81 H         2.169963   -3.021145   -5.879166 H        1 UNL1     0.0317
     82 H         1.740161   -1.459633   -7.795061 H        1 UNL1     0.0428
     83 H         3.093299   -0.959122   -6.805006 H        1 UNL1     0.0428
     84 H         -0.602054   1.03865   -6.129422 H        1 UNL1     0.0428
     85 H         -0.592521   -0.158046   -7.3772 H        1 UNL1     0.0428
     86 H         -1.514602   -0.841583   -5.161936 H        1 UNL1     0.0317
     87 H         -0.047934   -0.543564   -4.348045 H        1 UNL1     0.0317
     88 H         2.432834   1.932161   -6.694684 H        1 UNL1     0.0429
     89 H         2.480807   0.917071   -8.138126 H        1 UNL1     0.0429
     90 H         0.506384   1.832226   -8.954429 H        1 UNL1     0.0308
     91 H         -1.008677   2.722135   -6.627052 H        1 UNL1     0.0233
     92 H         -1.423711   1.458451   -7.812945 H        1 UNL1     0.0233
     93 H         -0.524883   1.050469   -6.367171 H        1 UNL1     0.0233
     94 H         0.681044   4.046963   -8.830097 H        1 UNL1     0.0233
     95 H         0.49212   4.079475   -7.070103 H        1 UNL1     0.0233
     96 H         2.082865   3.732728   -7.786543 H        1 UNL1     0.0233
     97 H         0.138845   -10.361964   -3.935248 H        1 UNL1     0.0280
     98 H         -1.452774   -10.648766   -4.584618 H        1 UNL1     0.0280
     99 H         -0.027574   -10.726049   -5.66284 H        1 UNL1     0.0280
     100 H         0.149792   -9.751861   -7.41679 H        1 UNL1     0.2922
     101 H         -4.454865   -2.107436   -0.8456 H        1 UNL1     0.0236
     102 H         -5.182545   -2.469647   -2.459708 H        1 UNL1     0.0236
     103 H         -4.860082   -0.838487   -1.958879 H        1 UNL1     0.0236
     104 H         -2.795027   0.274752   -2.000871 H        1 UNL1     0.2098
     105 H         0.251521   -0.313441   1.687981 H        1 UNL1     0.0234
     106 H         0.663553   -1.497737   0.415672 H        1 UNL1     0.0234
     107 H         0.0   0.0   0.0 H        1 UNL1     0.0234
     108 H         -1.448803   -4.048485   1.162308 H        1 UNL1     0.2098
     109 H         1.856212   -2.23202   0.374679 H        1 UNL1     0.0234
     110 H         2.323938   -3.885266   -0.136019 H        1 UNL1     0.0234
     111 H         0.676603   -3.371153   -0.240017 H        1 UNL1     0.0234
     112 H         3.207646   0.521589   3.502494 H        1 UNL1     0.0342
     113 H         3.352055   0.888709   1.746758 H        1 UNL1     0.0342
     114 H         1.782222   0.973195   2.550783 H        1 UNL1     0.0342
     115 H         -1.943666   -4.285756   4.054297 H        1 UNL1     0.0234
     116 H         -0.37758   -4.15892   4.861806 H        1 UNL1     0.0234
     117 H         -1.738373   -3.081804   5.238251 H        1 UNL1     0.0234
     118 H         1.642865   -7.270055   -2.777787 H        1 UNL1     0.0309
     119 H         1.503042   -6.166429   -1.374035 H        1 UNL1     0.0309
     120 H         1.406518   -7.904015   -1.190637 H        1 UNL1     0.0309
     121 H         -2.407366   -5.841723   2.332696 H        1 UNL1     0.0524
     122 H         -1.245783   -6.770008   1.375686 H        1 UNL1     0.0524
     123 H         -1.476965   -7.157518   3.099093 H        1 UNL1     0.0524
@<TRIPOS>BOND
     1     1     2    1
     2     1    42    1
     3     2     3    2
     4     3     4    1
     5     4     5    2
     6     5     7    1
     7     6    75    1
     8     6    76    1
     9     6    77    1
    10     7     9   am
    11     9    10    1
    12    10    11    2
    13    10    43    1
    14    11    14    1
    15    11    15    1
    16    12    13   ar
    17    12    27   ar
    18    12    43    1
    19    13    14    1
    20    13    30   ar
    21    14    17    2
    22    15    16    1
    23    16    17    1
    24    16    18    1
    25    16    22    1
    26    18    19    1
    27    19    20    1
    28    20    21    1
    29    21    22    1
    30    23    24    1
    31    23    88    1
    32    23    89    1
    33    24    25    1
    34    24    26    1
    35    24    90    1
    36    25    91    1
    37    25    92    1
    38    25    93    1
    39    26    94    1
    40    26    95    1
    41    26    96    1
    42    27    28   ar
    43    28    29   ar
    44    29    30   ar
    45    29    31    1
    46    30    33    1
    47    31    32    1
    48    32    33    1
    49    32    35    1
    50    34    97    1
    51    34    98    1
    52    34    99    1
    53    35    61    1
    54    36    37    1
    55    36    60    1
    56    37    38    1
    57    38    39    1
    58    39    40    1
    59    40    41    1
    60    41    42    1
    61    45   100    1
    62    47   101    1
    63    47   102    1
    64    47   103    1
    65    48   104    1
    66    49   105    1
    67    49   106    1
    68    49   107    1
    69    50   108    1
    70    51    59    1
    71    52   109    1
    72    52   110    1
    73    52   111    1
    74    53    54    1
    75    54    55    2
    76    54    56    1
    77    56   112    1
    78    56   113    1
    79    56   114    1
    80    57   115    1
    81    57   116    1
    82    57   117    1
    83    58   118    1
    84    58   119    1
    85    58   120    1
    86    59   121    1
    87    59   122    1
    88    59   123    1
    89    60    61    2
    90     1    47    1
    91     1    62    1
    92     2    63    1
    93     3    64    1
    94     4    65    1
    95     5     6    1
    96     7     8    2
    97     9    78    1
    98    15    79    1
    99    18    80    1
   100    18    81    1
   101    19    82    1
   102    19    83    1
   103    20    23    1
   104    21    84    1
   105    21    85    1
   106    22    86    1
   107    22    87    1
   108    27    45    1
   109    28    34    1
   110    32    58    1
   111    33    46    2
   112    36    51    1
   113    36    66    1
   114    37    52    1
   115    37    67    1
   116    38    53    1
   117    38    68    1
   118    42    48    1
   119    42    72    1
   120    43    44    2
   121    60    73    1
   122    61    74    1
   123    39    69    1
   124    39    57    1
   125    40    70    1
   126    40    50    1
   127    41    71    1
   128    41    49    1
