@<TRIPOS>MOLECULE
*****
 123 128 0 0 0
SMALL
GASTEIGER

@<TRIPOS>ATOM
     1 C         0.153915   -5.070425   2.068539 C.3        1 UNL1     0.0009
     2 C         -0.614738   -6.75743   2.05355 C.2        1 UNL1     -0.0787
     3 C         -1.477227   -7.750169   2.659049 C.2        1 UNL1     -0.0649
     4 C         -1.927575   -9.257735   2.033918 C.2        1 UNL1     -0.0542
     5 C         -2.875624   -10.308052   2.105429 C.2        1 UNL1     0.0115
     6 C         -4.06919   -10.869798   2.925895 C.3        1 UNL1     -0.0348
     7 C         -2.978802   -11.345869   0.885069 C.2        1 UNL1     0.2441
     8 O         -2.496991   -12.46962   0.924675 O.2        1 UNL1     -0.2702
     9 N         -3.880615   -10.97608   -0.127918 N.am        1 UNL1     -0.2772
     10 C         -3.253196   -10.187851   -1.065128 C.2        1 UNL1     0.1049
     11 C         -3.155357   -8.903396   -0.773881 C.2        1 UNL1     0.0801
     12 C         -1.207324   -10.058133   -2.498625 C.ar        1 UNL1     0.0753
     13 C         -1.029097   -8.732918   -1.988086 C.ar        1 UNL1     0.0305
     14 C         -2.070722   -8.066232   -1.209885 C.2        1 UNL1     0.0924
     15 N         -3.75201   -8.189749   0.196294 N.pl3        1 UNL1     -0.3170
     16 C         -3.443966   -6.802013   -0.026312 C.3        1 UNL1     0.1275
     17 N         -2.118198   -6.820186   -0.747237 N.2        1 UNL1     -0.2557
     18 C         -4.463313   -6.26758   -1.027818 C.3        1 UNL1     0.0016
     19 C         -5.85977   -6.521052   -0.482612 C.3        1 UNL1     0.0026
     20 N         -5.988348   -5.850949   0.804034 N.3        1 UNL1     -0.3018
     21 C         -5.009676   -6.254583   1.815789 C.3        1 UNL1     0.0026
     22 C         -3.614335   -5.986997   1.248941 C.3        1 UNL1     0.0016
     23 C         -7.359925   -5.776442   1.266492 C.3        1 UNL1     0.0012
     24 C         -8.166531   -4.793094   0.40384 C.3        1 UNL1     -0.0339
     25 C         -9.31797   -4.159   1.201443 C.3        1 UNL1     -0.0615
     26 C         -7.245039   -3.737704   -0.182492 C.3        1 UNL1     -0.0615
     27 C         -0.262181   -10.640746   -3.339687 C.ar        1 UNL1     0.1347
     28 C         0.876971   -9.984087   -3.770017 C.ar        1 UNL1     0.0342
     29 C         1.055736   -8.698825   -3.215665 C.ar        1 UNL1     0.1435
     30 C         0.135415   -8.116311   -2.343365 C.ar        1 UNL1     0.0774
     31 O         2.058755   -7.889742   -3.621059 O.3        1 UNL1     -0.4436
     32 C         1.647291   -6.573794   -3.221246 C.3        1 UNL1     0.3143
     33 C         0.665016   -6.79295   -2.088409 C.2        1 UNL1     0.2504
     34 C         1.801277   -10.445632   -4.862141 C.3        1 UNL1     -0.0327
     35 O         2.792916   -5.921487   -2.659738 O.2        1 UNL1     -0.4528
     36 C         2.332125   -2.220138   -3.363847 C.3        1 UNL1     0.0854
     37 C         1.139346   -1.270217   -2.960794 C.3        1 UNL1     0.0236
     38 C         1.566124   0.039228   -2.139237 C.3        1 UNL1     0.1131
     39 C         2.489445   -0.101183   -0.86251 C.3        1 UNL1     0.0200
     40 C         2.208582   -1.307552   0.254732 C.3        1 UNL1     0.0661
     41 C         0.713812   -1.671642   0.969372 C.3        1 UNL1     0.0091
     42 C         0.024818   -3.274516   1.53637 C.3        1 UNL1     0.0661
     43 C         -2.475143   -10.758217   -2.174934 C.2        1 UNL1     0.2131
     44 O         -2.921266   -11.680985   -2.832363 O.2        1 UNL1     -0.2851
     45 O         -0.489309   -11.951036   -3.755608 O.3        1 UNL1     -0.5056
     46 O         0.396537   -6.051381   -1.169796 O.2        1 UNL1     -0.2836
     47 C         1.291479   -5.005485   3.122917 C.3        1 UNL1     -0.0566
     48 O         -0.427139   -2.746726   2.846442 O.3        1 UNL1     -0.3909
     49 C         -0.380468   -0.969656   0.196547 C.3        1 UNL1     -0.0577
     50 O         2.86882   -2.500151   -0.118789 O.3        1 UNL1     -0.3910
     51 O         3.588668   -1.899896   -2.810695 O.3        1 UNL1     -0.3753
     52 C         -0.158172   -2.075756   -2.625377 C.3        1 UNL1     -0.0564
     53 O         0.491179   1.084522   -2.07459 O.3        1 UNL1     -0.4608
     54 C         0.220333   1.880662   -0.992586 C.2        1 UNL1     0.3042
     55 O         -0.700422   1.756699   -0.185936 O.2        1 UNL1     -0.2512
     56 C         1.225397   2.978022   -0.786763 C.3        1 UNL1     0.0332
     57 C         3.999153   0.145212   -1.329676 C.3        1 UNL1     -0.0567
     58 C         0.891704   -5.966756   -4.426286 C.3        1 UNL1     0.0210
     59 C         4.529068   -1.354683   -3.734954 C.3        1 UNL1     0.0372
     60 C         2.101906   -3.666264   -3.097618 C.2        1 UNL1     -0.0208
     61 C         2.903063   -4.58335   -2.553702 C.2        1 UNL1     0.0882
     62 H         0.630413   -5.299987   1.107829 H        1 UNL1     0.0365
     63 H         -0.133367   -7.192687   1.175311 H        1 UNL1     0.0576
     64 H         -2.069879   -7.52721   3.549083 H        1 UNL1     0.0615
     65 H         -1.229411   -9.416289   1.207534 H        1 UNL1     0.0622
     66 H         2.405506   -2.1228   -4.456178 H        1 UNL1     0.0645
     67 H         0.810987   -0.830928   -3.918795 H        1 UNL1     0.0362
     68 H         2.190112   0.536739   -2.897289 H        1 UNL1     0.0741
     69 H         2.40021   0.79817   -0.267859 H        1 UNL1     0.0359
     70 H         2.799107   -0.919658   1.106717 H        1 UNL1     0.0600
     71 H         0.775713   -1.041875   1.878503 H        1 UNL1     0.0348
     72 H         1.112891   -3.418985   1.468987 H        1 UNL1     0.0602
     73 H         1.179683   -3.959326   -3.534503 H        1 UNL1     0.0628
     74 H         3.835543   -4.357961   -2.035128 H        1 UNL1     0.1022
     75 H         -3.825286   -10.880573   4.015587 H        1 UNL1     0.0279
     76 H         -4.991157   -10.293376   2.89789 H        1 UNL1     0.0279
     77 H         -4.252134   -11.93725   2.734116 H        1 UNL1     0.0279
     78 H         -4.640057   -10.42964   0.272992 H        1 UNL1     0.1553
     79 H         -4.57462   -8.492526   0.684733 H        1 UNL1     0.1484
     80 H         -4.282874   -5.197297   -1.184985 H        1 UNL1     0.0317
     81 H         -4.344794   -6.751945   -2.003009 H        1 UNL1     0.0317
     82 H         -6.072392   -7.59644   -0.391818 H        1 UNL1     0.0428
     83 H         -6.570928   -6.133971   -1.213005 H        1 UNL1     0.0428
     84 H         -5.07718   -5.680336   2.745034 H        1 UNL1     0.0428
     85 H         -5.156788   -7.295834   2.134335 H        1 UNL1     0.0428
     86 H         -2.933008   -6.167079   2.059715 H        1 UNL1     0.0317
     87 H         -3.491007   -4.915981   1.046925 H        1 UNL1     0.0317
     88 H         -7.807511   -6.77428   1.170161 H        1 UNL1     0.0429
     89 H         -7.408385   -5.503383   2.328502 H        1 UNL1     0.0429
     90 H         -8.589787   -5.330596   -0.452991 H        1 UNL1     0.0308
     91 H         -8.980639   -3.819748   2.185423 H        1 UNL1     0.0233
     92 H         -9.744874   -3.313196   0.657403 H        1 UNL1     0.0233
     93 H         -10.143431   -4.860544   1.372575 H        1 UNL1     0.0233
     94 H         -7.833084   -2.921369   -0.615661 H        1 UNL1     0.0233
     95 H         -6.611435   -3.316733   0.603187 H        1 UNL1     0.0233
     96 H         -6.605907   -4.156217   -0.965005 H        1 UNL1     0.0233
     97 H         1.878795   -9.718319   -5.664785 H        1 UNL1     0.0280
     98 H         2.825306   -10.602528   -4.498818 H        1 UNL1     0.0280
     99 H         1.426795   -11.3911   -5.287521 H        1 UNL1     0.0280
     100 H         -0.398628   -12.089009   -4.682086 H        1 UNL1     0.2922
     101 H         2.258994   -5.037279   2.622357 H        1 UNL1     0.0236
     102 H         1.204891   -5.769754   3.894525 H        1 UNL1     0.0236
     103 H         1.29224   -4.049643   3.672971 H        1 UNL1     0.0236
     104 H         -0.448717   -1.771988   2.780179 H        1 UNL1     0.2098
     105 H         -0.623745   -1.431232   -0.75717 H        1 UNL1     0.0234
     106 H         -1.2896   -0.778319   0.766456 H        1 UNL1     0.0234
     107 H         0.0   0.0   0.0 H        1 UNL1     0.0234
     108 H         2.496315   -3.220581   0.42526 H        1 UNL1     0.2098
     109 H         -0.512646   -2.668248   -3.480369 H        1 UNL1     0.0234
     110 H         -0.047459   -2.725152   -1.750293 H        1 UNL1     0.0234
     111 H         -0.990293   -1.410312   -2.359475 H        1 UNL1     0.0234
     112 H         0.963336   3.560915   0.101441 H        1 UNL1     0.0342
     113 H         2.24207   2.594285   -0.716302 H        1 UNL1     0.0342
     114 H         1.182595   3.649781   -1.655136 H        1 UNL1     0.0342
     115 H         4.590475   0.647804   -0.551905 H        1 UNL1     0.0234
     116 H         4.531589   -0.765963   -1.609534 H        1 UNL1     0.0234
     117 H         4.090146   0.862531   -2.163412 H        1 UNL1     0.0234
     118 H         1.457786   -5.145431   -4.899554 H        1 UNL1     0.0309
     119 H         0.63201   -6.708355   -5.188384 H        1 UNL1     0.0309
     120 H         -0.050051   -5.489117   -4.134624 H        1 UNL1     0.0309
     121 H         5.527453   -1.576011   -3.358658 H        1 UNL1     0.0524
     122 H         4.443347   -1.809062   -4.736068 H        1 UNL1     0.0524
     123 H         4.390934   -0.280718   -3.822198 H        1 UNL1     0.0524
@<TRIPOS>BOND
     1     1     2    1
     2     1    42    1
     3     2     3    2
     4     3     4    1
     5     4     5    2
     6     5     7    1
     7     6    75    1
     8     6    76    1
     9     6    77    1
    10     7     9   am
    11     9    10    1
    12    10    11    2
    13    10    43    1
    14    11    14    1
    15    11    15    1
    16    12    13   ar
    17    12    27   ar
    18    12    43    1
    19    13    14    1
    20    13    30   ar
    21    14    17    2
    22    15    16    1
    23    16    17    1
    24    16    18    1
    25    16    22    1
    26    18    19    1
    27    19    20    1
    28    20    21    1
    29    21    22    1
    30    23    24    1
    31    23    88    1
    32    23    89    1
    33    24    25    1
    34    24    26    1
    35    24    90    1
    36    25    91    1
    37    25    92    1
    38    25    93    1
    39    26    94    1
    40    26    95    1
    41    26    96    1
    42    27    28   ar
    43    28    29   ar
    44    29    30   ar
    45    29    31    1
    46    30    33    1
    47    31    32    1
    48    32    33    1
    49    32    35    1
    50    34    97    1
    51    34    98    1
    52    34    99    1
    53    35    61    1
    54    36    37    1
    55    36    60    1
    56    37    38    1
    57    38    39    1
    58    39    40    1
    59    40    41    1
    60    41    42    1
    61    45   100    1
    62    47   101    1
    63    47   102    1
    64    47   103    1
    65    48   104    1
    66    49   105    1
    67    49   106    1
    68    49   107    1
    69    50   108    1
    70    51    59    1
    71    52   109    1
    72    52   110    1
    73    52   111    1
    74    53    54    1
    75    54    55    2
    76    54    56    1
    77    56   112    1
    78    56   113    1
    79    56   114    1
    80    57   115    1
    81    57   116    1
    82    57   117    1
    83    58   118    1
    84    58   119    1
    85    58   120    1
    86    59   121    1
    87    59   122    1
    88    59   123    1
    89    60    61    2
    90     1    47    1
    91     1    62    1
    92     2    63    1
    93     3    64    1
    94     4    65    1
    95     5     6    1
    96     7     8    2
    97     9    78    1
    98    15    79    1
    99    18    80    1
   100    18    81    1
   101    19    82    1
   102    19    83    1
   103    20    23    1
   104    21    84    1
   105    21    85    1
   106    22    86    1
   107    22    87    1
   108    27    45    1
   109    28    34    1
   110    32    58    1
   111    33    46    2
   112    36    51    1
   113    36    66    1
   114    37    52    1
   115    37    67    1
   116    38    53    1
   117    38    68    1
   118    42    48    1
   119    42    72    1
   120    43    44    2
   121    60    73    1
   122    61    74    1
   123    39    69    1
   124    39    57    1
   125    40    70    1
   126    40    50    1
   127    41    71    1
   128    41    49    1
