@<TRIPOS>MOLECULE
*****
 123 128 0 0 0
SMALL
GASTEIGER

@<TRIPOS>ATOM
     1 C         5.164104   1.765696   0.462188 C.3        1 UNL1     0.0009
     2 C         6.593392   2.576334   -0.396323 C.2        1 UNL1     -0.0787
     3 C         7.871849   2.482208   -1.069177 C.2        1 UNL1     -0.0649
     4 C         8.74104   3.720054   -1.829837 C.2        1 UNL1     -0.0542
     5 C         9.754854   4.015858   -2.774166 C.2        1 UNL1     0.0115
     6 C         10.880237   3.393943   -3.645979 C.3        1 UNL1     -0.0348
     7 C         9.841975   5.499313   -3.381423 C.2        1 UNL1     0.2441
     8 O         10.665272   6.323704   -3.008478 O.2        1 UNL1     -0.2702
     9 N         9.084564   5.703634   -4.547927 N.am        1 UNL1     -0.2772
     10 C         7.802366   6.086189   -4.22708 C.2        1 UNL1     0.1049
     11 C         6.961392   5.112077   -3.930281 C.2        1 UNL1     0.0801
     12 C         6.506638   7.688847   -2.809367 C.ar        1 UNL1     0.0753
     13 C         5.753767   6.558542   -2.357475 C.ar        1 UNL1     0.0305
     14 C         5.871349   5.253118   -3.003302 C.2        1 UNL1     0.0924
     15 N         7.087451   3.783478   -4.089847 N.pl3        1 UNL1     -0.3170
     16 C         5.821323   3.18023   -3.768498 C.3        1 UNL1     0.1275
     17 N         5.187291   4.133556   -2.785189 N.2        1 UNL1     -0.2557
     18 C         4.96125   3.236304   -5.027399 C.3        1 UNL1     0.0016
     19 C         5.712047   2.554479   -6.160099 C.3        1 UNL1     0.0026
     20 N         5.988825   1.177331   -5.77554 N.3        1 UNL1     -0.3018
     21 C         6.759603   1.019638   -4.540468 C.3        1 UNL1     0.0026
     22 C         5.984879   1.707812   -3.415251 C.3        1 UNL1     0.0016
     23 C         6.429801   0.359054   -6.887567 C.3        1 UNL1     0.0012
     24 C         5.269714   0.105646   -7.863138 C.3        1 UNL1     -0.0339
     25 C         5.354989   1.028339   -9.090095 C.3        1 UNL1     -0.0615
     26 C         5.238301   -1.358462   -8.265853 C.3        1 UNL1     -0.0615
     27 C         6.300863   8.955961   -2.268815 C.ar        1 UNL1     0.1347
     28 C         5.346303   9.222551   -1.303519 C.ar        1 UNL1     0.0342
     29 C         4.651021   8.085903   -0.839001 C.ar        1 UNL1     0.1435
     30 C         4.871815   6.804509   -1.345459 C.ar        1 UNL1     0.0774
     31 O         3.614445   8.196228   0.020269 O.3        1 UNL1     -0.4436
     32 C         2.896005   6.96104   -0.117667 C.3        1 UNL1     0.3143
     33 C         3.909545   5.971146   -0.655308 C.2        1 UNL1     0.2504
     34 C         4.897484   10.58727   -0.860571 C.3        1 UNL1     -0.0327
     35 O         2.544147   6.523401   1.200636 O.2        1 UNL1     -0.4528
     36 C         -0.694753   4.580593   0.82233 C.3        1 UNL1     0.0854
     37 C         -1.000958   3.318861   -0.0731 C.3        1 UNL1     0.0236
     38 C         -1.592992   2.05601   0.718384 C.3        1 UNL1     0.1131
     39 C         -0.85825   1.527676   2.015799 C.3        1 UNL1     0.0200
     40 C         0.803612   1.387548   2.047709 C.3        1 UNL1     0.0661
     41 C         1.758935   0.621635   0.87368 C.3        1 UNL1     0.0091
     42 C         3.462155   0.989648   0.300083 C.3        1 UNL1     0.0661
     43 C         7.451074   7.484035   -3.935578 C.2        1 UNL1     0.2131
     44 O         7.844009   8.38328   -4.65648 O.2        1 UNL1     -0.2851
     45 O         7.10718   9.993624   -2.732007 O.3        1 UNL1     -0.5056
     46 O         3.930184   4.767694   -0.524423 O.2        1 UNL1     -0.2836
     47 C         5.569894   1.337776   1.898224 C.3        1 UNL1     -0.0566
     48 O         3.915761   -0.419975   0.379596 O.3        1 UNL1     -0.3909
     49 C         0.918593   0.386101   -0.36157 C.3        1 UNL1     -0.0577
     50 O         1.402028   2.607431   2.436949 O.3        1 UNL1     -0.3910
     51 O         -0.810443   4.390775   2.214456 O.3        1 UNL1     -0.3753
     52 C         0.037556   3.161576   -1.231417 C.3        1 UNL1     -0.0564
     53 O         -2.197229   1.014902   -0.177897 O.3        1 UNL1     -0.4608
     54 C         -2.394314   -0.300581   0.151634 C.2        1 UNL1     0.3042
     55 O         -1.747664   -1.272717   -0.236483 O.2        1 UNL1     -0.2512
     56 C         -3.502208   -0.512553   1.143779 C.3        1 UNL1     0.0332
     57 C         -1.574389   2.194556   3.280943 C.3        1 UNL1     -0.0567
     58 C         1.813973   7.202426   -1.195845 C.3        1 UNL1     0.0210
     59 C         -1.123334   5.568894   2.956076 C.3        1 UNL1     0.0372
     60 C         0.630878   5.213955   0.584178 C.2        1 UNL1     -0.0208
     61 C         1.54724   5.652321   1.44839 C.2        1 UNL1     0.0882
     62 H         4.685479   2.748331   0.551947 H        1 UNL1     0.0365
     63 H         6.324309   3.629281   -0.289712 H        1 UNL1     0.0576
     64 H         8.331404   1.51681   -1.292614 H        1 UNL1     0.0615
     65 H         8.252928   4.633927   -1.480458 H        1 UNL1     0.0622
     66 H         -1.443552   5.324636   0.516148 H        1 UNL1     0.0645
     67 H         -1.870914   3.625292   -0.679594 H        1 UNL1     0.0362
     68 H         -2.539496   2.48987   1.075338 H        1 UNL1     0.0741
     69 H         -1.185382   0.515542   2.213228 H        1 UNL1     0.0359
     70 H         0.922464   0.727754   2.928394 H        1 UNL1     0.0600
     71 H         1.808228   -0.399301   1.300549 H        1 UNL1     0.0348
     72 H         3.360169   1.477695   1.280249 H        1 UNL1     0.0602
     73 H         0.742329   5.411386   -0.453053 H        1 UNL1     0.0628
     74 H         1.536366   5.441808   2.518345 H        1 UNL1     0.1022
     75 H         10.87765   2.281037   -3.553953 H        1 UNL1     0.0279
     76 H         10.798287   3.540328   -4.720653 H        1 UNL1     0.0279
     77 H         11.887477   3.639506   -3.278736 H        1 UNL1     0.0279
     78 H         9.022457   4.833386   -5.072225 H        1 UNL1     0.1553
     79 H         7.750644   3.357532   -4.710877 H        1 UNL1     0.1484
     80 H         4.002672   2.742285   -4.827799 H        1 UNL1     0.0317
     81 H         4.729757   4.272262   -5.297313 H        1 UNL1     0.0317
     82 H         6.639574   3.088756   -6.413385 H        1 UNL1     0.0428
     83 H         5.081737   2.607414   -7.048331 H        1 UNL1     0.0428
     84 H         6.885044   -0.022856   -4.231791 H        1 UNL1     0.0428
     85 H         7.787896   1.390998   -4.650117 H        1 UNL1     0.0428
     86 H         6.507189   1.459308   -2.510029 H        1 UNL1     0.0317
     87 H         5.007709   1.227018   -3.284594 H        1 UNL1     0.0317
     88 H         7.221134   0.903332   -7.419403 H        1 UNL1     0.0429
     89 H         6.867428   -0.585238   -6.538899 H        1 UNL1     0.0429
     90 H         4.320055   0.295299   -7.348945 H        1 UNL1     0.0308
     91 H         6.307806   0.90648   -9.613921 H        1 UNL1     0.0233
     92 H         4.535794   0.825245   -9.783839 H        1 UNL1     0.0233
     93 H         5.272769   2.08858   -8.821832 H        1 UNL1     0.0233
     94 H         4.578997   -1.498635   -9.12928 H        1 UNL1     0.0233
     95 H         6.241107   -1.689363   -8.550191 H        1 UNL1     0.0233
     96 H         4.876791   -1.989345   -7.448989 H        1 UNL1     0.0233
     97 H         4.053581   10.537356   -0.17898 H        1 UNL1     0.0280
     98 H         5.686881   11.128078   -0.322392 H        1 UNL1     0.0280
     99 H         4.596946   11.180339   -1.739799 H        1 UNL1     0.0280
     100 H         6.6395   10.770757   -2.982929 H        1 UNL1     0.2922
     101 H         4.688163   1.005703   2.445887 H        1 UNL1     0.0236
     102 H         6.118996   2.109645   2.436451 H        1 UNL1     0.0236
     103 H         6.243028   0.464234   1.895402 H        1 UNL1     0.0236
     104 H         4.252751   -0.570792   1.284395 H        1 UNL1     0.2098
     105 H         0.699814   1.284119   -0.933855 H        1 UNL1     0.0234
     106 H         1.286865   -0.400848   -1.019609 H        1 UNL1     0.0234
     107 H         0.0   -0.0   0.0 H        1 UNL1     0.0234
     108 H         1.251338   3.247787   1.715143 H        1 UNL1     0.2098
     109 H         1.066274   3.063909   -0.857369 H        1 UNL1     0.0234
     110 H         -0.189265   2.325996   -1.902314 H        1 UNL1     0.0234
     111 H         0.043406   4.039062   -1.891667 H        1 UNL1     0.0234
     112 H         -3.592749   -1.577438   1.378657 H        1 UNL1     0.0342
     113 H         -3.359901   0.076398   2.048615 H        1 UNL1     0.0342
     114 H         -4.44431   -0.188584   0.680474 H        1 UNL1     0.0342
     115 H         -2.661549   2.03636   3.265253 H        1 UNL1     0.0234
     116 H         -1.203852   1.833338   4.242334 H        1 UNL1     0.0234
     117 H         -1.519505   3.296777   3.28716 H        1 UNL1     0.0234
     118 H         0.911795   7.682244   -0.777686 H        1 UNL1     0.0309
     119 H         2.175393   7.795325   -2.042042 H        1 UNL1     0.0309
     120 H         1.429364   6.269246   -1.621707 H        1 UNL1     0.0309
     121 H         -0.744712   5.431399   3.968547 H        1 UNL1     0.0524
     122 H         -0.637814   6.466957   2.539194 H        1 UNL1     0.0524
     123 H         -2.198026   5.726178   2.975917 H        1 UNL1     0.0524
@<TRIPOS>BOND
     1     1     2    1
     2     1    42    1
     3     2     3    2
     4     3     4    1
     5     4     5    2
     6     5     7    1
     7     6    75    1
     8     6    76    1
     9     6    77    1
    10     7     9   am
    11     9    10    1
    12    10    11    2
    13    10    43    1
    14    11    14    1
    15    11    15    1
    16    12    13   ar
    17    12    27   ar
    18    12    43    1
    19    13    14    1
    20    13    30   ar
    21    14    17    2
    22    15    16    1
    23    16    17    1
    24    16    18    1
    25    16    22    1
    26    18    19    1
    27    19    20    1
    28    20    21    1
    29    21    22    1
    30    23    24    1
    31    23    88    1
    32    23    89    1
    33    24    25    1
    34    24    26    1
    35    24    90    1
    36    25    91    1
    37    25    92    1
    38    25    93    1
    39    26    94    1
    40    26    95    1
    41    26    96    1
    42    27    28   ar
    43    28    29   ar
    44    29    30   ar
    45    29    31    1
    46    30    33    1
    47    31    32    1
    48    32    33    1
    49    32    35    1
    50    34    97    1
    51    34    98    1
    52    34    99    1
    53    35    61    1
    54    36    37    1
    55    36    60    1
    56    37    38    1
    57    38    39    1
    58    39    40    1
    59    40    41    1
    60    41    42    1
    61    45   100    1
    62    47   101    1
    63    47   102    1
    64    47   103    1
    65    48   104    1
    66    49   105    1
    67    49   106    1
    68    49   107    1
    69    50   108    1
    70    51    59    1
    71    52   109    1
    72    52   110    1
    73    52   111    1
    74    53    54    1
    75    54    55    2
    76    54    56    1
    77    56   112    1
    78    56   113    1
    79    56   114    1
    80    57   115    1
    81    57   116    1
    82    57   117    1
    83    58   118    1
    84    58   119    1
    85    58   120    1
    86    59   121    1
    87    59   122    1
    88    59   123    1
    89    60    61    2
    90     1    47    1
    91     1    62    1
    92     2    63    1
    93     3    64    1
    94     4    65    1
    95     5     6    1
    96     7     8    2
    97     9    78    1
    98    15    79    1
    99    18    80    1
   100    18    81    1
   101    19    82    1
   102    19    83    1
   103    20    23    1
   104    21    84    1
   105    21    85    1
   106    22    86    1
   107    22    87    1
   108    27    45    1
   109    28    34    1
   110    32    58    1
   111    33    46    2
   112    36    51    1
   113    36    66    1
   114    37    52    1
   115    37    67    1
   116    38    53    1
   117    38    68    1
   118    42    48    1
   119    42    72    1
   120    43    44    2
   121    60    73    1
   122    61    74    1
   123    39    69    1
   124    39    57    1
   125    40    70    1
   126    40    50    1
   127    41    71    1
   128    41    49    1
