@<TRIPOS>MOLECULE
*****
 123 128 0 0 0
SMALL
GASTEIGER

@<TRIPOS>ATOM
     1 C         1.8847   1.758876   -4.833841 C.3        1 UNL1     0.0009
     2 C         3.315804   1.764829   -6.012375 C.2        1 UNL1     -0.0787
     3 C         4.459502   2.433636   -6.596068 C.2        1 UNL1     -0.0649
     4 C         5.591315   1.800757   -7.684562 C.2        1 UNL1     -0.0542
     5 C         6.892339   1.950773   -8.224848 C.2        1 UNL1     0.0115
     6 C         8.118529   2.901374   -8.303203 C.3        1 UNL1     -0.0348
     7 C         7.569471   0.704852   -8.977285 C.2        1 UNL1     0.2441
     8 O         7.631799   0.617303   -10.195881 O.2        1 UNL1     -0.2702
     9 N         8.315655   -0.149763   -8.147228 N.am        1 UNL1     -0.2772
     10 C         7.506294   -1.12391   -7.609367 C.2        1 UNL1     0.1049
     11 C         6.821927   -0.78288   -6.532538 C.2        1 UNL1     0.0801
     12 C         5.774992   -2.823584   -8.218493 C.ar        1 UNL1     0.0753
     13 C         4.978132   -2.27501   -7.163653 C.ar        1 UNL1     0.0305
     14 C         5.531217   -1.323652   -6.20237 C.2        1 UNL1     0.0924
     15 N         6.937678   0.297783   -5.74178 N.pl3        1 UNL1     -0.3170
     16 C         6.073939   0.106487   -4.607049 C.3        1 UNL1     0.1275
     17 N         4.975452   -0.79463   -5.116005 N.2        1 UNL1     -0.2557
     18 C         6.85103   -0.711578   -3.58011 C.3        1 UNL1     0.0016
     19 C         8.150709   0.011666   -3.264926 C.3        1 UNL1     0.0026
     20 N         7.835497   1.336724   -2.74928 N.3        1 UNL1     -0.3018
     21 C         7.035872   2.17749   -3.642634 C.3        1 UNL1     0.0026
     22 C         5.733215   1.433745   -3.942338 C.3        1 UNL1     0.0016
     23 C         8.976895   1.991741   -2.141985 C.3        1 UNL1     0.0012
     24 C         9.351799   1.304258   -0.81965 C.3        1 UNL1     -0.0339
     25 C         9.887742   2.315089   0.207503 C.3        1 UNL1     -0.0615
     26 C         8.160446   0.53421   -0.276987 C.3        1 UNL1     -0.0615
     27 C         5.277353   -3.81906   -9.056051 C.ar        1 UNL1     0.1347
     28 C         4.017115   -4.371339   -8.911693 C.ar        1 UNL1     0.0342
     29 C         3.232838   -3.781611   -7.897646 C.ar        1 UNL1     0.1435
     30 C         3.705142   -2.75877   -7.074272 C.ar        1 UNL1     0.0774
     31 O         2.024073   -4.282045   -7.560806 O.3        1 UNL1     -0.4436
     32 C         1.768432   -3.760025   -6.248169 C.3        1 UNL1     0.3143
     33 C         2.622561   -2.512644   -6.144644 C.2        1 UNL1     0.2504
     34 C         3.510791   -5.605753   -9.604484 C.3        1 UNL1     -0.0327
     35 O         0.400964   -3.332938   -6.218469 O.2        1 UNL1     -0.4528
     36 C         -0.748286   -3.770929   -2.627441 C.3        1 UNL1     0.0854
     37 C         -0.146362   -3.154297   -1.306467 C.3        1 UNL1     0.0236
     38 C         -1.190214   -2.334226   -0.406688 C.3        1 UNL1     0.1131
     39 C         -2.084278   -1.209969   -1.069232 C.3        1 UNL1     0.0200
     40 C         -1.418048   -0.128648   -2.150583 C.3        1 UNL1     0.0661
     41 C         0.000411   0.770232   -1.910586 C.3        1 UNL1     0.0091
     42 C         1.262729   1.344644   -3.111422 C.3        1 UNL1     0.0661
     43 C         7.180189   -2.360794   -8.334714 C.2        1 UNL1     0.2131
     44 O         8.053541   -2.99572   -8.897619 O.2        1 UNL1     -0.2851
     45 O         6.101351   -4.266403   -10.086754 O.3        1 UNL1     -0.5056
     46 O         2.438866   -1.527907   -5.464642 O.2        1 UNL1     -0.2836
     47 C         0.732241   2.64373   -5.380513 C.3        1 UNL1     -0.0566
     48 O         1.296102   2.731173   -2.586503 O.3        1 UNL1     -0.3909
     49 C         0.746515   0.197566   -0.726156 C.3        1 UNL1     -0.0577
     50 O         -1.44131   -0.653426   -3.462753 O.3        1 UNL1     -0.3910
     51 O         -2.067208   -3.385095   -2.942097 O.3        1 UNL1     -0.3753
     52 C         1.330617   -2.68121   -1.505641 C.3        1 UNL1     -0.0564
     53 O         -0.700129   -2.063827   0.985802 O.3        1 UNL1     -0.4608
     54 C         -0.922827   -0.914386   1.697926 C.2        1 UNL1     0.3042
     55 O         -0.122237   -0.00716   1.921166 O.2        1 UNL1     -0.2512
     56 C         -2.335569   -0.775644   2.189477 C.3        1 UNL1     0.0332
     57 C         -3.48991   -1.872449   -1.44804 C.3        1 UNL1     -0.0567
     58 C         2.299609   -4.812813   -5.247661 C.3        1 UNL1     0.0210
     59 C         -3.049638   -4.403364   -2.758188 C.3        1 UNL1     0.0372
     60 C         0.067308   -3.550557   -3.852759 C.2        1 UNL1     -0.0208
     61 C         -0.298757   -3.173945   -5.078689 C.2        1 UNL1     0.0882
     62 H         1.661438   0.729792   -5.140194 H        1 UNL1     0.0365
     63 H         3.170372   0.805864   -6.514078 H        1 UNL1     0.0576
     64 H         4.796574   3.408933   -6.237895 H        1 UNL1     0.0615
     65 H         5.125148   0.876818   -8.037421 H        1 UNL1     0.0622
     66 H         -0.742789   -4.856087   -2.452947 H        1 UNL1     0.0645
     67 H         0.052305   -4.032025   -0.667183 H        1 UNL1     0.0362
     68 H         -1.886902   -3.145929   -0.147291 H        1 UNL1     0.0741
     69 H         -2.463593   -0.562618   -0.289832 H        1 UNL1     0.0359
     70 H         -2.204353   0.650316   -2.150234 H        1 UNL1     0.0600
     71 H         -0.427426   1.693049   -1.47204 H        1 UNL1     0.0348
     72 H         0.36371   1.116634   -3.702263 H        1 UNL1     0.0602
     73 H         1.06414   -3.867313   -3.670439 H        1 UNL1     0.0628
     74 H         -1.283383   -2.781412   -5.334945 H        1 UNL1     0.1022
     75 H         7.792314   3.943567   -8.536553 H        1 UNL1     0.0279
     76 H         8.688827   3.03411   -7.386573 H        1 UNL1     0.0279
     77 H         8.772623   2.682022   -9.159793 H        1 UNL1     0.0279
     78 H         8.70962   0.382442   -7.374165 H        1 UNL1     0.1553
     79 H         7.753565   0.881189   -5.711806 H        1 UNL1     0.1484
     80 H         6.23429   -0.836682   -2.681919 H        1 UNL1     0.0317
     81 H         7.06078   -1.717634   -3.958933 H        1 UNL1     0.0317
     82 H         8.805304   0.075442   -4.146601 H        1 UNL1     0.0428
     83 H         8.689877   -0.589643   -2.532276 H        1 UNL1     0.0428
     84 H         6.745777   3.135596   -3.200267 H        1 UNL1     0.0428
     85 H         7.593276   2.45893   -4.546741 H        1 UNL1     0.0428
     86 H         5.120912   2.129524   -4.485445 H        1 UNL1     0.0317
     87 H         5.17173   1.272417   -3.014004 H        1 UNL1     0.0317
     88 H         9.826195   1.907797   -2.832592 H        1 UNL1     0.0429
     89 H         8.788897   3.062705   -1.992096 H        1 UNL1     0.0429
     90 H         10.129796   0.555929   -1.011842 H        1 UNL1     0.0308
     91 H         9.255934   3.207106   0.254682 H        1 UNL1     0.0233
     92 H         9.944997   1.863226   1.200554 H        1 UNL1     0.0233
     93 H         10.902177   2.656087   -0.03224 H        1 UNL1     0.0233
     94 H         7.840874   0.958693   0.680887 H        1 UNL1     0.0233
     95 H         7.320776   0.605108   -0.974046 H        1 UNL1     0.0233
     96 H         8.403639   -0.520897   -0.123451 H        1 UNL1     0.0233
     97 H         3.203694   -6.371993   -8.898936 H        1 UNL1     0.0280
     98 H         2.629909   -5.399417   -10.226361 H        1 UNL1     0.0280
     99 H         4.306375   -6.023042   -10.243241 H        1 UNL1     0.0280
     100 H         6.6766   -4.972462   -9.849706 H        1 UNL1     0.2922
     101 H         -0.063896   2.010412   -5.771322 H        1 UNL1     0.0236
     102 H         1.066249   3.378935   -6.111878 H        1 UNL1     0.0236
     103 H         0.252433   3.237212   -4.584424 H        1 UNL1     0.0236
     104 H         0.744167   2.754747   -1.780412 H        1 UNL1     0.2098
     105 H         1.266438   -0.734912   -0.931036 H        1 UNL1     0.0234
     106 H         1.412983   0.899501   -0.225122 H        1 UNL1     0.0234
     107 H         0.0   0.0   0.0 H        1 UNL1     0.0234
     108 H         -0.848091   -0.100463   -4.006897 H        1 UNL1     0.2098
     109 H         1.997388   -3.507437   -1.789326 H        1 UNL1     0.0234
     110 H         1.427451   -1.866527   -2.231353 H        1 UNL1     0.0234
     111 H         1.750472   -2.264745   -0.580316 H        1 UNL1     0.0234
     112 H         -2.450586   0.168995   2.729639 H        1 UNL1     0.0342
     113 H         -3.060238   -0.853818   1.380411 H        1 UNL1     0.0342
     114 H         -2.53515   -1.593656   2.895302 H        1 UNL1     0.0342
     115 H         -4.314351   -1.14962   -1.377315 H        1 UNL1     0.0234
     116 H         -3.520075   -2.308057   -2.448732 H        1 UNL1     0.0234
     117 H         -3.82037   -2.643443   -0.730889 H        1 UNL1     0.0234
     118 H         1.481956   -5.317918   -4.704229 H        1 UNL1     0.0309
     119 H         2.937761   -5.568134   -5.717187 H        1 UNL1     0.0309
     120 H         2.897816   -4.366412   -4.4458 H        1 UNL1     0.0309
     121 H         -3.209469   -4.885269   -3.722334 H        1 UNL1     0.0524
     122 H         -2.718918   -5.180649   -2.049323 H        1 UNL1     0.0524
     123 H         -3.977907   -3.9693   -2.397634 H        1 UNL1     0.0524
@<TRIPOS>BOND
     1     1     2    1
     2     1    42    1
     3     2     3    2
     4     3     4    1
     5     4     5    2
     6     5     7    1
     7     6    75    1
     8     6    76    1
     9     6    77    1
    10     7     9   am
    11     9    10    1
    12    10    11    2
    13    10    43    1
    14    11    14    1
    15    11    15    1
    16    12    13   ar
    17    12    27   ar
    18    12    43    1
    19    13    14    1
    20    13    30   ar
    21    14    17    2
    22    15    16    1
    23    16    17    1
    24    16    18    1
    25    16    22    1
    26    18    19    1
    27    19    20    1
    28    20    21    1
    29    21    22    1
    30    23    24    1
    31    23    88    1
    32    23    89    1
    33    24    25    1
    34    24    26    1
    35    24    90    1
    36    25    91    1
    37    25    92    1
    38    25    93    1
    39    26    94    1
    40    26    95    1
    41    26    96    1
    42    27    28   ar
    43    28    29   ar
    44    29    30   ar
    45    29    31    1
    46    30    33    1
    47    31    32    1
    48    32    33    1
    49    32    35    1
    50    34    97    1
    51    34    98    1
    52    34    99    1
    53    35    61    1
    54    36    37    1
    55    36    60    1
    56    37    38    1
    57    38    39    1
    58    39    40    1
    59    40    41    1
    60    41    42    1
    61    45   100    1
    62    47   101    1
    63    47   102    1
    64    47   103    1
    65    48   104    1
    66    49   105    1
    67    49   106    1
    68    49   107    1
    69    50   108    1
    70    51    59    1
    71    52   109    1
    72    52   110    1
    73    52   111    1
    74    53    54    1
    75    54    55    2
    76    54    56    1
    77    56   112    1
    78    56   113    1
    79    56   114    1
    80    57   115    1
    81    57   116    1
    82    57   117    1
    83    58   118    1
    84    58   119    1
    85    58   120    1
    86    59   121    1
    87    59   122    1
    88    59   123    1
    89    60    61    2
    90     1    47    1
    91     1    62    1
    92     2    63    1
    93     3    64    1
    94     4    65    1
    95     5     6    1
    96     7     8    2
    97     9    78    1
    98    15    79    1
    99    18    80    1
   100    18    81    1
   101    19    82    1
   102    19    83    1
   103    20    23    1
   104    21    84    1
   105    21    85    1
   106    22    86    1
   107    22    87    1
   108    27    45    1
   109    28    34    1
   110    32    58    1
   111    33    46    2
   112    36    51    1
   113    36    66    1
   114    37    52    1
   115    37    67    1
   116    38    53    1
   117    38    68    1
   118    42    48    1
   119    42    72    1
   120    43    44    2
   121    60    73    1
   122    61    74    1
   123    39    69    1
   124    39    57    1
   125    40    70    1
   126    40    50    1
   127    41    71    1
   128    41    49    1
