@<TRIPOS>MOLECULE
*****
 123 128 0 0 0
SMALL
GASTEIGER

@<TRIPOS>ATOM
     1 C         3.53293   -1.294111   -1.697731 C.3        1 UNL1     0.0009
     2 C         4.755098   -0.304976   -2.680053 C.2        1 UNL1     -0.0787
     3 C         5.26442   0.153326   -3.955434 C.2        1 UNL1     -0.0649
     4 C         6.495332   1.280344   -4.240116 C.2        1 UNL1     -0.0542
     5 C         7.0588   2.169588   -5.18818 C.2        1 UNL1     0.0115
     6 C         7.025793   2.60211   -6.679877 C.3        1 UNL1     -0.0348
     7 C         8.045024   3.328147   -4.67623 C.2        1 UNL1     0.2441
     8 O         9.261915   3.261044   -4.782066 O.2        1 UNL1     -0.2702
     9 N         7.409559   4.535395   -4.33728 N.am        1 UNL1     -0.2772
     10 C         7.013087   4.515964   -3.0198 C.2        1 UNL1     0.1049
     11 C         5.864105   3.916031   -2.766533 C.2        1 UNL1     0.0801
     12 C         7.829765   4.011588   -0.709827 C.ar        1 UNL1     0.0753
     13 C         6.661466   3.198636   -0.558843 C.ar        1 UNL1     0.0305
     14 C         5.575506   3.23067   -1.535938 C.2        1 UNL1     0.0924
     15 N         4.904071   3.497443   -3.608939 N.pl3        1 UNL1     -0.3170
     16 C         3.782341   3.06655   -2.817544 C.3        1 UNL1     0.1275
     17 N         4.390302   2.627823   -1.507725 N.2        1 UNL1     -0.2557
     18 C         2.948211   4.304831   -2.503556 C.3        1 UNL1     0.0016
     19 C         2.570655   4.981413   -3.811715 C.3        1 UNL1     0.0026
     20 N         1.819798   4.036835   -4.627199 N.3        1 UNL1     -0.3018
     21 C         2.517562   2.785712   -4.930819 C.3        1 UNL1     0.0026
     22 C         2.883305   2.120635   -3.602738 C.3        1 UNL1     0.0016
     23 C         1.159616   4.665092   -5.754184 C.3        1 UNL1     0.0012
     24 C         1.05172   3.68289   -6.931212 C.3        1 UNL1     -0.0339
     25 C         0.138874   4.231939   -8.039956 C.3        1 UNL1     -0.0615
     26 C         2.435924   3.350175   -7.460418 C.3        1 UNL1     -0.0615
     27 C         8.804102   4.066661   0.28403 C.ar        1 UNL1     0.1347
     28 C         8.701667   3.386929   1.484664 C.ar        1 UNL1     0.0342
     29 C         7.566936   2.554875   1.590654 C.ar        1 UNL1     0.1435
     30 C         6.600687   2.461687   0.588208 C.ar        1 UNL1     0.0774
     31 O         7.268431   1.913378   2.741473 O.3        1 UNL1     -0.4436
     32 C         5.875166   1.587855   2.624342 C.3        1 UNL1     0.3143
     33 C         5.595258   1.574707   1.13515 C.2        1 UNL1     0.2504
     34 C         9.574569   3.592176   2.691319 C.3        1 UNL1     -0.0327
     35 O         5.711143   0.243213   3.091555 O.2        1 UNL1     -0.4528
     36 C         2.202735   0.061669   4.528985 C.3        1 UNL1     0.0854
     37 C         0.823027   0.374894   3.831979 C.3        1 UNL1     0.0236
     38 C         -0.250719   -0.814653   3.893546 C.3        1 UNL1     0.1131
     39 C         0.166653   -2.273071   3.445121 C.3        1 UNL1     0.0200
     40 C         1.072925   -2.505485   2.064145 C.3        1 UNL1     0.0661
     41 C         0.744208   -1.844305   0.536926 C.3        1 UNL1     0.0091
     42 C         1.882353   -1.320989   -0.803286 C.3        1 UNL1     0.0661
     43 C         7.926465   4.863565   -1.921043 C.2        1 UNL1     0.2131
     44 O         8.629116   5.855538   -1.991823 O.2        1 UNL1     -0.2851
     45 O         9.932326   4.846679   0.038834 O.3        1 UNL1     -0.5056
     46 O         4.747488   0.954366   0.533223 O.2        1 UNL1     -0.2836
     47 C         3.866269   -2.807551   -1.789198 C.3        1 UNL1     -0.0566
     48 O         1.127231   -2.018337   -1.872217 O.3        1 UNL1     -0.3909
     49 C         -0.288756   -0.750326   0.690834 C.3        1 UNL1     -0.0577
     50 O         2.453802   -2.403354   2.34782 O.3        1 UNL1     -0.3910
     51 O         2.386822   -1.26749   4.96128 O.3        1 UNL1     -0.3753
     52 C         1.002754   1.267462   2.56077 C.3        1 UNL1     -0.0564
     53 O         -1.645796   -0.38293   3.547569 O.3        1 UNL1     -0.4608
     54 C         -2.303926   -0.679151   2.382645 C.2        1 UNL1     0.3042
     55 O         -3.394734   -1.235353   2.261747 O.2        1 UNL1     -0.2512
     56 C         -1.5919   -0.197856   1.150538 C.3        1 UNL1     0.0332
     57 C         0.59157   -3.078805   4.759812 C.3        1 UNL1     -0.0567
     58 C         5.096756   2.758917   3.267941 C.3        1 UNL1     0.0210
     59 C         3.663635   -1.539023   5.537375 C.3        1 UNL1     0.0372
     60 C         3.406414   0.424547   3.732345 C.2        1 UNL1     -0.0208
     61 C         4.531071   -0.255871   3.506684 C.2        1 UNL1     0.0882
     62 H         4.002652   -0.925244   -0.777943 H        1 UNL1     0.0365
     63 H         5.408338   0.059528   -1.884513 H        1 UNL1     0.0576
     64 H         4.758093   -0.085682   -4.893312 H        1 UNL1     0.0615
     65 H         6.981793   1.386415   -3.266675 H        1 UNL1     0.0622
     66 H         2.219248   0.7135   5.413797 H        1 UNL1     0.0645
     67 H         0.354908   1.127388   4.490142 H        1 UNL1     0.0362
     68 H         -0.396338   -0.874809   4.982903 H        1 UNL1     0.0741
     69 H         -0.729179   -2.843761   3.239679 H        1 UNL1     0.0359
     70 H         0.902688   -3.587377   1.90418 H        1 UNL1     0.0600
     71 H         0.133867   -2.659295   0.10077 H        1 UNL1     0.0348
     72 H         2.46317   -1.99671   -0.158797 H        1 UNL1     0.0602
     73 H         3.326238   1.435925   3.419397 H        1 UNL1     0.0628
     74 H         4.67141   -1.311106   3.743376 H        1 UNL1     0.1022
     75 H         7.477898   3.615599   -6.804271 H        1 UNL1     0.0279
     76 H         7.608259   1.999109   -7.372836 H        1 UNL1     0.0279
     77 H         6.004513   2.773323   -7.050516 H        1 UNL1     0.0279
     78 H         6.574303   4.653926   -4.90682 H        1 UNL1     0.1553
     79 H         4.809827   3.824746   -4.552826 H        1 UNL1     0.1484
     80 H         2.058731   4.002662   -1.937619 H        1 UNL1     0.0317
     81 H         3.504507   4.999888   -1.865527 H        1 UNL1     0.0317
     82 H         3.456191   5.351631   -4.349001 H        1 UNL1     0.0428
     83 H         1.977946   5.862705   -3.564593 H        1 UNL1     0.0428
     84 H         1.903477   2.062117   -5.475906 H        1 UNL1     0.0428
     85 H         3.383146   2.949381   -5.587549 H        1 UNL1     0.0428
     86 H         3.269911   1.152144   -3.86071 H        1 UNL1     0.0317
     87 H         1.9729   1.888006   -3.036926 H        1 UNL1     0.0317
     88 H         0.146123   4.948689   -5.441617 H        1 UNL1     0.0429
     89 H         1.673637   5.587425   -6.053949 H        1 UNL1     0.0429
     90 H         0.632973   2.73561   -6.571317 H        1 UNL1     0.0308
     91 H         0.474375   3.906101   -9.029082 H        1 UNL1     0.0233
     92 H         -0.893113   3.907798   -7.886511 H        1 UNL1     0.0233
     93 H         0.11569   5.328298   -8.057093 H        1 UNL1     0.0233
     94 H         3.132378   4.165035   -7.235053 H        1 UNL1     0.0233
     95 H         2.811703   2.442792   -6.979369 H        1 UNL1     0.0233
     96 H         2.422861   3.196237   -8.543054 H        1 UNL1     0.0233
     97 H         10.045794   2.668956   3.015111 H        1 UNL1     0.0280
     98 H         10.394543   4.295053   2.494177 H        1 UNL1     0.0280
     99 H         8.966688   3.980674   3.524772 H        1 UNL1     0.0280
     100 H         10.697   4.592898   0.525138 H        1 UNL1     0.2922
     101 H         3.698661   -3.280078   -0.821582 H        1 UNL1     0.0236
     102 H         4.86719   -3.003633   -2.172203 H        1 UNL1     0.0236
     103 H         3.191583   -3.339146   -2.480861 H        1 UNL1     0.0236
     104 H         1.765163   -2.555427   -2.381675 H        1 UNL1     0.2098
     105 H         -1.303912   -1.053731   0.447496 H        1 UNL1     0.0234
     106 H         -0.268131   -0.236492   1.651811 H        1 UNL1     0.0234
     107 H         0.0   0.0   0.0 H        1 UNL1     0.0234
     108 H         2.878488   -1.983828   1.574898 H        1 UNL1     0.2098
     109 H         1.070826   2.335875   2.808906 H        1 UNL1     0.0234
     110 H         1.864305   0.977608   1.949659 H        1 UNL1     0.0234
     111 H         0.148306   1.174933   1.877174 H        1 UNL1     0.0234
     112 H         -2.001823   -0.694534   0.26588 H        1 UNL1     0.0342
     113 H         -1.638525   0.885205   1.047338 H        1 UNL1     0.0342
     114 H         -0.53307   -0.478975   1.234297 H        1 UNL1     0.0342
     115 H         -0.082286   -2.870345   5.60222 H        1 UNL1     0.0234
     116 H         0.624145   -4.161846   4.625612 H        1 UNL1     0.0234
     117 H         1.561174   -2.758158   5.178136 H        1 UNL1     0.0234
     118 H         4.063153   2.829183   2.88619 H        1 UNL1     0.0309
     119 H         5.072173   2.70911   4.361156 H        1 UNL1     0.0309
     120 H         5.525096   3.735847   3.018461 H        1 UNL1     0.0309
     121 H         3.636917   -2.553124   5.935172 H        1 UNL1     0.0524
     122 H         4.476186   -1.495677   4.793117 H        1 UNL1     0.0524
     123 H         3.875659   -0.829925   6.332561 H        1 UNL1     0.0524
@<TRIPOS>BOND
     1     1     2    1
     2     1    42    1
     3     2     3    2
     4     3     4    1
     5     4     5    2
     6     5     7    1
     7     6    75    1
     8     6    76    1
     9     6    77    1
    10     7     9   am
    11     9    10    1
    12    10    11    2
    13    10    43    1
    14    11    14    1
    15    11    15    1
    16    12    13   ar
    17    12    27   ar
    18    12    43    1
    19    13    14    1
    20    13    30   ar
    21    14    17    2
    22    15    16    1
    23    16    17    1
    24    16    18    1
    25    16    22    1
    26    18    19    1
    27    19    20    1
    28    20    21    1
    29    21    22    1
    30    23    24    1
    31    23    88    1
    32    23    89    1
    33    24    25    1
    34    24    26    1
    35    24    90    1
    36    25    91    1
    37    25    92    1
    38    25    93    1
    39    26    94    1
    40    26    95    1
    41    26    96    1
    42    27    28   ar
    43    28    29   ar
    44    29    30   ar
    45    29    31    1
    46    30    33    1
    47    31    32    1
    48    32    33    1
    49    32    35    1
    50    34    97    1
    51    34    98    1
    52    34    99    1
    53    35    61    1
    54    36    37    1
    55    36    60    1
    56    37    38    1
    57    38    39    1
    58    39    40    1
    59    40    41    1
    60    41    42    1
    61    45   100    1
    62    47   101    1
    63    47   102    1
    64    47   103    1
    65    48   104    1
    66    49   105    1
    67    49   106    1
    68    49   107    1
    69    50   108    1
    70    51    59    1
    71    52   109    1
    72    52   110    1
    73    52   111    1
    74    53    54    1
    75    54    55    2
    76    54    56    1
    77    56   112    1
    78    56   113    1
    79    56   114    1
    80    57   115    1
    81    57   116    1
    82    57   117    1
    83    58   118    1
    84    58   119    1
    85    58   120    1
    86    59   121    1
    87    59   122    1
    88    59   123    1
    89    60    61    2
    90     1    47    1
    91     1    62    1
    92     2    63    1
    93     3    64    1
    94     4    65    1
    95     5     6    1
    96     7     8    2
    97     9    78    1
    98    15    79    1
    99    18    80    1
   100    18    81    1
   101    19    82    1
   102    19    83    1
   103    20    23    1
   104    21    84    1
   105    21    85    1
   106    22    86    1
   107    22    87    1
   108    27    45    1
   109    28    34    1
   110    32    58    1
   111    33    46    2
   112    36    51    1
   113    36    66    1
   114    37    52    1
   115    37    67    1
   116    38    53    1
   117    38    68    1
   118    42    48    1
   119    42    72    1
   120    43    44    2
   121    60    73    1
   122    61    74    1
   123    39    69    1
   124    39    57    1
   125    40    70    1
   126    40    50    1
   127    41    71    1
   128    41    49    1
