@<TRIPOS>MOLECULE
*****
 123 128 0 0 0
SMALL
GASTEIGER

@<TRIPOS>ATOM
     1 C         5.168684   1.741842   0.499967 C.3        1 UNL1     0.0009
     2 C         6.60789   2.545988   -0.348014 C.2        1 UNL1     -0.0787
     3 C         7.890757   2.446054   -1.011574 C.2        1 UNL1     -0.0649
     4 C         8.771143   3.679972   -1.765713 C.2        1 UNL1     -0.0542
     5 C         9.793145   3.971214   -2.702605 C.2        1 UNL1     0.0115
     6 C         10.921959   3.344224   -3.56631 C.3        1 UNL1     -0.0348
     7 C         9.891506   5.454322   -3.308991 C.2        1 UNL1     0.2441
     8 O         10.715857   6.27487   -2.92995 O.2        1 UNL1     -0.2702
     9 N         9.143541   5.662264   -4.480938 N.am        1 UNL1     -0.2772
     10 C         7.86082   6.050683   -4.169359 C.2        1 UNL1     0.1049
     11 C         7.013235   5.08042   -3.878826 C.2        1 UNL1     0.0801
     12 C         6.562216   7.659126   -2.76086 C.ar        1 UNL1     0.0753
     13 C         5.800884   6.532249   -2.314621 C.ar        1 UNL1     0.0305
     14 C         5.917145   5.226371   -2.959771 C.2        1 UNL1     0.0924
     15 N         7.134332   3.751273   -4.03767 N.pl3        1 UNL1     -0.3170
     16 C         5.863138   3.153825   -3.72562 C.3        1 UNL1     0.1275
     17 N         5.226373   4.109946   -2.746802 N.2        1 UNL1     -0.2557
     18 C         5.012504   3.214005   -4.99073 C.3        1 UNL1     0.0016
     19 C         5.768366   2.528861   -6.118045 C.3        1 UNL1     0.0026
     20 N         6.035998   1.150409   -5.731691 N.3        1 UNL1     -0.3018
     21 C         6.797046   0.989024   -4.491074 C.3        1 UNL1     0.0026
     22 C         6.017341   1.680628   -3.371414 C.3        1 UNL1     0.0016
     23 C         6.481272   0.330238   -6.840607 C.3        1 UNL1     0.0012
     24 C         5.327151   0.082289   -7.82462 C.3        1 UNL1     -0.0339
     25 C         5.356023   1.085395   -8.989524 C.3        1 UNL1     -0.0615
     26 C         5.365449   -1.352485   -8.321346 C.3        1 UNL1     -0.0615
     27 C         6.358354   8.927112   -2.221628 C.ar        1 UNL1     0.1347
     28 C         5.398042   9.197984   -1.263255 C.ar        1 UNL1     0.0342
     29 C         4.694176   8.064495   -0.803972 C.ar        1 UNL1     0.1435
     30 C         4.912743   6.782157   -1.309004 C.ar        1 UNL1     0.0774
     31 O         3.651901   8.179493   0.047759 O.3        1 UNL1     -0.4436
     32 C         2.928803   6.947643   -0.095578 C.3        1 UNL1     0.3143
     33 C         3.941656   5.953154   -0.625988 C.2        1 UNL1     0.2504
     34 C         4.952304   10.564704   -0.823377 C.3        1 UNL1     -0.0327
     35 O         2.565363   6.511476   1.220067 O.2        1 UNL1     -0.4528
     36 C         -0.679613   4.583649   0.817944 C.3        1 UNL1     0.0854
     37 C         -0.985108   3.323444   -0.079876 C.3        1 UNL1     0.0236
     38 C         -1.588687   2.063241   0.707096 C.3        1 UNL1     0.1131
     39 C         -0.865834   1.531378   2.009737 C.3        1 UNL1     0.0200
     40 C         0.795089   1.383595   2.053702 C.3        1 UNL1     0.0661
     41 C         1.755383   0.613426   0.886531 C.3        1 UNL1     0.0091
     42 C         3.464402   0.973658   0.325383 C.3        1 UNL1     0.0661
     43 C         7.513858   7.450099   -3.88021 C.2        1 UNL1     0.2131
     44 O         7.916158   8.347607   -4.598103 O.2        1 UNL1     -0.2851
     45 O         7.172785   9.961104   -2.678794 O.3        1 UNL1     -0.5056
     46 O         3.955802   4.749604   -0.495137 O.2        1 UNL1     -0.2836
     47 C         5.562052   1.311891   1.93885 C.3        1 UNL1     -0.0566
     48 O         3.910924   -0.438047   0.407978 O.3        1 UNL1     -0.3909
     49 C         0.922964   0.381908   -0.354828 C.3        1 UNL1     -0.0577
     50 O         1.396271   2.600664   2.447463 O.3        1 UNL1     -0.3910
     51 O         -0.806291   4.394203   2.209164 O.3        1 UNL1     -0.3753
     52 C         0.06106   3.161512   -1.23064 C.3        1 UNL1     -0.0564
     53 O         -2.191182   1.025031   -0.193708 O.3        1 UNL1     -0.4608
     54 C         -2.415819   -0.284643   0.141288 C.2        1 UNL1     0.3042
     55 O         -1.844241   -1.278423   -0.30541 O.2        1 UNL1     -0.2512
     56 C         -3.447243   -0.461313   1.219094 C.3        1 UNL1     0.0332
     57 C         -1.588071   2.201403   3.269743 C.3        1 UNL1     -0.0567
     58 C         1.855758   7.194135   -1.181555 C.3        1 UNL1     0.0210
     59 C         -1.150059   5.56734   2.94499 C.3        1 UNL1     0.0372
     60 C         0.650616   5.210927   0.589526 C.2        1 UNL1     -0.0208
     61 C         1.562681   5.644967   1.46044 C.2        1 UNL1     0.0882
     62 H         4.693948   2.72666   0.586392 H        1 UNL1     0.0365
     63 H         6.342891   3.600151   -0.243204 H        1 UNL1     0.0576
     64 H         8.347474   1.478576   -1.23181 H        1 UNL1     0.0615
     65 H         8.284718   4.596043   -1.419753 H        1 UNL1     0.0622
     66 H         -1.422733   5.331167   0.50644 H        1 UNL1     0.0645
     67 H         -1.849214   3.633949   -0.69263 H        1 UNL1     0.0362
     68 H         -2.535753   2.501414   1.057228 H        1 UNL1     0.0741
     69 H         -1.199049   0.520739   2.204633 H        1 UNL1     0.0359
     70 H         0.904498   0.723159   2.935129 H        1 UNL1     0.0600
     71 H         1.796871   -0.407775   1.313595 H        1 UNL1     0.0348
     72 H         3.357544   1.462057   1.304854 H        1 UNL1     0.0602
     73 H         0.77051   5.407963   -0.446838 H        1 UNL1     0.0628
     74 H         1.543063   5.434383   2.530256 H        1 UNL1     0.1022
     75 H         10.964689   2.238894   -3.413163 H        1 UNL1     0.0279
     76 H         10.81024   3.42711   -4.645067 H        1 UNL1     0.0279
     77 H         11.926898   3.647586   -3.238027 H        1 UNL1     0.0279
     78 H         9.08124   4.792372   -5.005803 H        1 UNL1     0.1553
     79 H         7.800053   3.32235   -4.653928 H        1 UNL1     0.1484
     80 H         4.050236   2.724383   -4.798175 H        1 UNL1     0.0317
     81 H         4.787751   4.251049   -5.262164 H        1 UNL1     0.0317
     82 H         6.700159   3.05889   -6.364505 H        1 UNL1     0.0428
     83 H         5.144778   2.584802   -7.010827 H        1 UNL1     0.0428
     84 H         6.915438   -0.054072   -4.18165 H        1 UNL1     0.0428
     85 H         7.827807   1.355658   -4.593192 H        1 UNL1     0.0428
     86 H         6.531909   1.429617   -2.462458 H        1 UNL1     0.0317
     87 H         5.037044   1.204324   -3.247934 H        1 UNL1     0.0317
     88 H         7.278946   0.870928   -7.366596 H        1 UNL1     0.0429
     89 H         6.912001   -0.6161   -6.488909 H        1 UNL1     0.0429
     90 H         4.373548   0.190316   -7.29435 H        1 UNL1     0.0308
     91 H         6.305785   1.039174   -9.530743 H        1 UNL1     0.0233
     92 H         4.536643   0.892365   -9.685918 H        1 UNL1     0.0233
     93 H         5.232507   2.121454   -8.651648 H        1 UNL1     0.0233
     94 H         4.670391   -1.481169   -9.158107 H        1 UNL1     0.0233
     95 H         6.370084   -1.598139   -8.676768 H        1 UNL1     0.0233
     96 H         5.088808   -2.055906   -7.531006 H        1 UNL1     0.0233
     97 H         4.157665   10.51604   -0.084857 H        1 UNL1     0.0280
     98 H         5.765042   11.133675   -0.353287 H        1 UNL1     0.0280
     99 H         4.58084   11.129691   -1.693951 H        1 UNL1     0.0280
     100 H         6.707304   10.712065   -3.002844 H        1 UNL1     0.2922
     101 H         4.697812   0.879448   2.442575 H        1 UNL1     0.0236
     102 H         6.012954   2.116661   2.518519 H        1 UNL1     0.0236
     103 H         6.317217   0.508201   1.939058 H        1 UNL1     0.0236
     104 H         4.32883   -0.56455   1.282233 H        1 UNL1     0.2098
     105 H         0.712488   1.280991   -0.928553 H        1 UNL1     0.0234
     106 H         1.292382   -0.406652   -1.010291 H        1 UNL1     0.0234
     107 H         0.0   -0.0   0.0 H        1 UNL1     0.0234
     108 H         1.197372   3.259876   1.754898 H        1 UNL1     0.2098
     109 H         1.085106   3.046677   -0.84873 H        1 UNL1     0.0234
     110 H         -0.171365   2.334685   -1.910403 H        1 UNL1     0.0234
     111 H         0.084532   4.044256   -1.883448 H        1 UNL1     0.0234
     112 H         -3.574401   -1.525081   1.441748 H        1 UNL1     0.0342
     113 H         -3.199262   0.099322   2.119115 H        1 UNL1     0.0342
     114 H         -4.406007   -0.079122   0.842442 H        1 UNL1     0.0342
     115 H         -2.652679   1.934415   3.319901 H        1 UNL1     0.0234
     116 H         -1.13848   1.94031   4.22982 H        1 UNL1     0.0234
     117 H         -1.646954   3.301774   3.209273 H        1 UNL1     0.0234
     118 H         0.954656   7.682281   -0.770782 H        1 UNL1     0.0309
     119 H         2.22733   7.781566   -2.027168 H        1 UNL1     0.0309
     120 H         1.466639   6.262673   -1.607082 H        1 UNL1     0.0309
     121 H         -2.114284   5.387962   3.419805 H        1 UNL1     0.0524
     122 H         -0.422654   5.788301   3.743798 H        1 UNL1     0.0524
     123 H         -1.213549   6.423423   2.279269 H        1 UNL1     0.0524
@<TRIPOS>BOND
     1     1     2    1
     2     1    42    1
     3     2     3    2
     4     3     4    1
     5     4     5    2
     6     5     7    1
     7     6    75    1
     8     6    76    1
     9     6    77    1
    10     7     9   am
    11     9    10    1
    12    10    11    2
    13    10    43    1
    14    11    14    1
    15    11    15    1
    16    12    13   ar
    17    12    27   ar
    18    12    43    1
    19    13    14    1
    20    13    30   ar
    21    14    17    2
    22    15    16    1
    23    16    17    1
    24    16    18    1
    25    16    22    1
    26    18    19    1
    27    19    20    1
    28    20    21    1
    29    21    22    1
    30    23    24    1
    31    23    88    1
    32    23    89    1
    33    24    25    1
    34    24    26    1
    35    24    90    1
    36    25    91    1
    37    25    92    1
    38    25    93    1
    39    26    94    1
    40    26    95    1
    41    26    96    1
    42    27    28   ar
    43    28    29   ar
    44    29    30   ar
    45    29    31    1
    46    30    33    1
    47    31    32    1
    48    32    33    1
    49    32    35    1
    50    34    97    1
    51    34    98    1
    52    34    99    1
    53    35    61    1
    54    36    37    1
    55    36    60    1
    56    37    38    1
    57    38    39    1
    58    39    40    1
    59    40    41    1
    60    41    42    1
    61    45   100    1
    62    47   101    1
    63    47   102    1
    64    47   103    1
    65    48   104    1
    66    49   105    1
    67    49   106    1
    68    49   107    1
    69    50   108    1
    70    51    59    1
    71    52   109    1
    72    52   110    1
    73    52   111    1
    74    53    54    1
    75    54    55    2
    76    54    56    1
    77    56   112    1
    78    56   113    1
    79    56   114    1
    80    57   115    1
    81    57   116    1
    82    57   117    1
    83    58   118    1
    84    58   119    1
    85    58   120    1
    86    59   121    1
    87    59   122    1
    88    59   123    1
    89    60    61    2
    90     1    47    1
    91     1    62    1
    92     2    63    1
    93     3    64    1
    94     4    65    1
    95     5     6    1
    96     7     8    2
    97     9    78    1
    98    15    79    1
    99    18    80    1
   100    18    81    1
   101    19    82    1
   102    19    83    1
   103    20    23    1
   104    21    84    1
   105    21    85    1
   106    22    86    1
   107    22    87    1
   108    27    45    1
   109    28    34    1
   110    32    58    1
   111    33    46    2
   112    36    51    1
   113    36    66    1
   114    37    52    1
   115    37    67    1
   116    38    53    1
   117    38    68    1
   118    42    48    1
   119    42    72    1
   120    43    44    2
   121    60    73    1
   122    61    74    1
   123    39    69    1
   124    39    57    1
   125    40    70    1
   126    40    50    1
   127    41    71    1
   128    41    49    1
