@<TRIPOS>MOLECULE
*****
 123 128 0 0 0
SMALL
GASTEIGER

@<TRIPOS>ATOM
     1 C         -5.244897   -1.278458   -0.491527 C.3        1 UNL1     0.0009
     2 C         -6.697334   -1.207975   -1.641525 C.2        1 UNL1     -0.0787
     3 C         -7.988998   -0.66209   -2.00161 C.2        1 UNL1     -0.0649
     4 C         -8.882287   -0.946007   -3.411498 C.2        1 UNL1     -0.0542
     5 C         -9.9177   -0.460139   -4.247518 C.2        1 UNL1     0.0115
     6 C         -11.056965   0.590463   -4.355386 C.3        1 UNL1     -0.0348
     7 C         -10.027534   -1.014424   -5.750081 C.2        1 UNL1     0.2441
     8 O         -10.848325   -1.855062   -6.090896 O.2        1 UNL1     -0.2702
     9 N         -9.29621   -0.283444   -6.702438 N.am        1 UNL1     -0.2772
     10 C         -8.010148   -0.764287   -6.792744 C.2        1 UNL1     0.1049
     11 C         -7.156594   -0.316489   -5.889891 C.2        1 UNL1     0.0801
     12 C         -6.695687   -2.877747   -7.043372 C.ar        1 UNL1     0.0753
     13 C         -5.925904   -2.439906   -5.918944 C.ar        1 UNL1     0.0305
     14 C         -6.04827   -1.083589   -5.389338 C.2        1 UNL1     0.0924
     15 N         -7.277054   0.696643   -5.014916 N.pl3        1 UNL1     -0.3170
     16 C         -6.000424   0.880666   -4.377259 C.3        1 UNL1     0.1275
     17 N         -5.352273   -0.481288   -4.429261 N.2        1 UNL1     -0.2557
     18 C         -5.167411   1.781004   -5.284553 C.3        1 UNL1     0.0016
     19 C         -5.937265   3.068624   -5.531428 C.3        1 UNL1     0.0026
     20 N         -6.196639   3.711449   -4.250596 N.3        1 UNL1     -0.3018
     21 C         -6.940197   2.898264   -3.286118 C.3        1 UNL1     0.0026
     22 C         -6.146622   1.61214   -3.049434 C.3        1 UNL1     0.0016
     23 C         -6.655396   5.079327   -4.388782 C.3        1 UNL1     0.0012
     24 C         -7.037388   5.374523   -5.847788 C.3        1 UNL1     -0.0339
     25 C         -6.882288   6.868038   -6.178565 C.3        1 UNL1     -0.0615
     26 C         -6.218094   4.506047   -6.786556 C.3        1 UNL1     -0.0615
     27 C         -6.487106   -4.12957   -7.617437 C.ar        1 UNL1     0.1347
     28 C         -5.514271   -5.011171   -7.181064 C.ar        1 UNL1     0.0342
     29 C         -4.801754   -4.578996   -6.042333 C.ar        1 UNL1     0.1435
     30 C         -5.024538   -3.342851   -5.43444 C.ar        1 UNL1     0.0774
     31 O         -3.748102   -5.275998   -5.563782 O.3        1 UNL1     -0.4436
     32 C         -3.024441   -4.3326   -4.759301 C.3        1 UNL1     0.3143
     33 C         -4.042391   -3.278918   -4.372335 C.2        1 UNL1     0.2504
     34 C         -5.065413   -6.254201   -7.897655 C.3        1 UNL1     -0.0327
     35 O         -2.642007   -5.005896   -3.553619 O.2        1 UNL1     -0.4528
     36 C         0.601198   -3.379846   -2.437523 C.3        1 UNL1     0.0854
     37 C         0.896974   -1.864226   -2.116689 C.3        1 UNL1     0.0236
     38 C         1.51399   -1.589213   -0.662247 C.3        1 UNL1     0.1131
     39 C         0.810259   -2.197815   0.617064 C.3        1 UNL1     0.0200
     40 C         -0.849585   -2.145022   0.773805 C.3        1 UNL1     0.0661
     41 C         -1.82422   -0.772397   0.564999 C.3        1 UNL1     0.0091
     42 C         -3.541558   -0.616346   -0.060939 C.3        1 UNL1     0.0661
     43 C         -7.6622   -1.919021   -7.634098 C.2        1 UNL1     0.2131
     44 O         -8.076239   -1.998485   -8.776461 O.2        1 UNL1     -0.2851
     45 O         -7.309937   -4.497128   -8.680116 O.3        1 UNL1     -0.5056
     46 O         -4.052189   -2.563379   -3.395728 O.2        1 UNL1     -0.2836
     47 C         -5.617515   -2.053492   0.800935 C.3        1 UNL1     -0.0566
     48 O         -3.983914   0.271502   1.041405 O.3        1 UNL1     -0.3909
     49 C         -1.008476   0.307109   -0.110813 C.3        1 UNL1     -0.0577
     50 O         -1.447863   -3.262168   0.147889 O.3        1 UNL1     -0.3910
     51 O         0.747411   -4.277476   -1.360344 O.3        1 UNL1     -0.3753
     52 C         -0.164589   -0.914927   -2.762341 C.3        1 UNL1     -0.0564
     53 O         2.106226   -0.218612   -0.51047 O.3        1 UNL1     -0.4608
     54 C         2.86177   0.208098   0.550191 C.2        1 UNL1     0.3042
     55 O         2.480994   0.421448   1.700552 O.2        1 UNL1     -0.2512
     56 C         4.320471   0.362431   0.226023 C.3        1 UNL1     0.0332
     57 C         1.54835   -3.573438   0.964997 C.3        1 UNL1     -0.0567
     58 C         -1.966967   -3.688236   -5.685624 C.3        1 UNL1     0.0210
     59 C         2.021283   -4.241262   -0.718624 C.3        1 UNL1     0.0372
     60 C         -0.733372   -3.646227   -3.04012 C.2        1 UNL1     -0.0208
     61 C         -1.634281   -4.58975   -2.762861 C.2        1 UNL1     0.0882
     62 H         -4.771101   -2.002695   -1.165107 H        1 UNL1     0.0365
     63 H         -6.433148   -1.994405   -2.351597 H        1 UNL1     0.0576
     64 H         -8.446655   0.149341   -1.431314 H        1 UNL1     0.0615
     65 H         -8.393086   -1.815258   -3.859347 H        1 UNL1     0.0622
     66 H         1.338378   -3.647965   -3.207408 H        1 UNL1     0.0645
     67 H         1.751905   -1.614075   -2.768668 H        1 UNL1     0.0362
     68 H         2.464856   -2.135012   -0.759613 H        1 UNL1     0.0741
     69 H         1.148263   -1.656688   1.49076 H        1 UNL1     0.0359
     70 H         -0.945456   -2.350686   1.85712 H        1 UNL1     0.0600
     71 H         -1.857666   -0.39873   1.607214 H        1 UNL1     0.0348
     72 H         -3.422263   -1.667763   0.238404 H        1 UNL1     0.0602
     73 H         -0.867934   -3.01551   -3.883528 H        1 UNL1     0.0628
     74 H         -1.599496   -5.236884   -1.885795 H        1 UNL1     0.1022
     75 H         -10.866824   1.447211   -3.664833 H        1 UNL1     0.0279
     76 H         -11.170842   1.085581   -5.317133 H        1 UNL1     0.0279
     77 H         -12.018693   0.21537   -3.975798 H        1 UNL1     0.0279
     78 H         -9.239299   0.691447   -6.41534 H        1 UNL1     0.1553
     79 H         -7.950284   1.435029   -5.107002 H        1 UNL1     0.1484
     80 H         -4.201551   1.977739   -4.803745 H        1 UNL1     0.0317
     81 H         -4.948609   1.283406   -6.235433 H        1 UNL1     0.0317
     82 H         -6.873481   2.884663   -6.078758 H        1 UNL1     0.0428
     83 H         -5.326143   3.695101   -6.181895 H        1 UNL1     0.0428
     84 H         -7.052114   3.372842   -2.30629 H        1 UNL1     0.0428
     85 H         -7.973039   2.717196   -3.614398 H        1 UNL1     0.0428
     86 H         -6.648099   1.106325   -2.245283 H        1 UNL1     0.0317
     87 H         -5.163712   1.851016   -2.625259 H        1 UNL1     0.0317
     88 H         -7.547594   5.205342   -3.761569 H        1 UNL1     0.0429
     89 H         -5.903169   5.790906   -4.02466 H        1 UNL1     0.0429
     90 H         -8.083076   5.087627   -6.010394 H        1 UNL1     0.0308
     91 H         -5.88227   7.088278   -6.564 H        1 UNL1     0.0233
     92 H         -7.62704   7.180073   -6.914492 H        1 UNL1     0.0233
     93 H         -7.032965   7.508035   -5.300763 H        1 UNL1     0.0233
     94 H         -6.330538   4.85513   -7.818706 H        1 UNL1     0.0233
     95 H         -5.158434   4.567775   -6.523358 H        1 UNL1     0.0233
     96 H         -6.533181   3.459884   -6.739319 H        1 UNL1     0.0233
     97 H         -4.504126   -6.918941   -7.247801 H        1 UNL1     0.0280
     98 H         -5.911913   -6.84435   -8.272379 H        1 UNL1     0.0280
     99 H         -4.421347   -5.977534   -8.748378 H        1 UNL1     0.0280
     100 H         -7.793074   -3.787126   -9.064952 H        1 UNL1     0.2922
     101 H         -6.543412   -2.606441   0.64403 H        1 UNL1     0.0236
     102 H         -5.665987   -1.416745   1.68365 H        1 UNL1     0.0236
     103 H         -4.870021   -2.824661   1.051426 H        1 UNL1     0.0236
     104 H         -3.50848   -0.002809   1.849914 H        1 UNL1     0.2098
     105 H         -1.206778   0.420825   -1.173619 H        1 UNL1     0.0234
     106 H         -1.037554   1.277374   0.384837 H        1 UNL1     0.0234
     107 H         0.0   0.0   0.0 H        1 UNL1     0.0234
     108 H         -1.798268   -3.837646   0.854861 H        1 UNL1     0.2098
     109 H         -0.364125   -0.0305   -2.141306 H        1 UNL1     0.0234
     110 H         0.10163   -0.598047   -3.776471 H        1 UNL1     0.0234
     111 H         -1.13383   -1.416179   -2.885886 H        1 UNL1     0.0234
     112 H         4.906544   -0.369381   0.790219 H        1 UNL1     0.0342
     113 H         4.513773   0.277804   -0.842301 H        1 UNL1     0.0342
     114 H         4.638246   1.365158   0.543389 H        1 UNL1     0.0342
     115 H         1.118984   -4.053519   1.85514 H        1 UNL1     0.0234
     116 H         1.527983   -4.305374   0.155118 H        1 UNL1     0.0234
     117 H         2.598136   -3.442211   1.279115 H        1 UNL1     0.0234
     118 H         -2.208903   -3.831119   -6.753359 H        1 UNL1     0.0309
     119 H         -1.818948   -2.621159   -5.491617 H        1 UNL1     0.0309
     120 H         -0.98062   -4.154303   -5.585591 H        1 UNL1     0.0309
     121 H         1.949678   -4.838069   0.19025 H        1 UNL1     0.0524
     122 H         2.816833   -4.681176   -1.342813 H        1 UNL1     0.0524
     123 H         2.290201   -3.217445   -0.474544 H        1 UNL1     0.0524
@<TRIPOS>BOND
     1     1     2    1
     2     1    42    1
     3     2     3    2
     4     3     4    1
     5     4     5    2
     6     5     7    1
     7     6    75    1
     8     6    76    1
     9     6    77    1
    10     7     9   am
    11     9    10    1
    12    10    11    2
    13    10    43    1
    14    11    14    1
    15    11    15    1
    16    12    13   ar
    17    12    27   ar
    18    12    43    1
    19    13    14    1
    20    13    30   ar
    21    14    17    2
    22    15    16    1
    23    16    17    1
    24    16    18    1
    25    16    22    1
    26    18    19    1
    27    19    20    1
    28    20    21    1
    29    21    22    1
    30    23    24    1
    31    23    88    1
    32    23    89    1
    33    24    25    1
    34    24    26    1
    35    24    90    1
    36    25    91    1
    37    25    92    1
    38    25    93    1
    39    26    94    1
    40    26    95    1
    41    26    96    1
    42    27    28   ar
    43    28    29   ar
    44    29    30   ar
    45    29    31    1
    46    30    33    1
    47    31    32    1
    48    32    33    1
    49    32    35    1
    50    34    97    1
    51    34    98    1
    52    34    99    1
    53    35    61    1
    54    36    37    1
    55    36    60    1
    56    37    38    1
    57    38    39    1
    58    39    40    1
    59    40    41    1
    60    41    42    1
    61    45   100    1
    62    47   101    1
    63    47   102    1
    64    47   103    1
    65    48   104    1
    66    49   105    1
    67    49   106    1
    68    49   107    1
    69    50   108    1
    70    51    59    1
    71    52   109    1
    72    52   110    1
    73    52   111    1
    74    53    54    1
    75    54    55    2
    76    54    56    1
    77    56   112    1
    78    56   113    1
    79    56   114    1
    80    57   115    1
    81    57   116    1
    82    57   117    1
    83    58   118    1
    84    58   119    1
    85    58   120    1
    86    59   121    1
    87    59   122    1
    88    59   123    1
    89    60    61    2
    90     1    47    1
    91     1    62    1
    92     2    63    1
    93     3    64    1
    94     4    65    1
    95     5     6    1
    96     7     8    2
    97     9    78    1
    98    15    79    1
    99    18    80    1
   100    18    81    1
   101    19    82    1
   102    19    83    1
   103    20    23    1
   104    21    84    1
   105    21    85    1
   106    22    86    1
   107    22    87    1
   108    27    45    1
   109    28    34    1
   110    32    58    1
   111    33    46    2
   112    36    51    1
   113    36    66    1
   114    37    52    1
   115    37    67    1
   116    38    53    1
   117    38    68    1
   118    42    48    1
   119    42    72    1
   120    43    44    2
   121    60    73    1
   122    61    74    1
   123    39    69    1
   124    39    57    1
   125    40    70    1
   126    40    50    1
   127    41    71    1
   128    41    49    1
