@<TRIPOS>MOLECULE
*****
 123 128 0 0 0
SMALL
GASTEIGER

@<TRIPOS>ATOM
     1 C         5.166841   1.750095   0.4901 C.3        1 UNL1     0.0009
     2 C         6.603114   2.556604   -0.360604 C.2        1 UNL1     -0.0787
     3 C         7.884855   2.458771   -1.026649 C.2        1 UNL1     -0.0649
     4 C         8.761803   3.694149   -1.782402 C.2        1 UNL1     -0.0542
     5 C         9.781525   3.987091   -2.721247 C.2        1 UNL1     0.0115
     6 C         10.909671   3.361968   -3.587174 C.3        1 UNL1     -0.0348
     7 C         9.876336   5.470395   -3.327719 C.2        1 UNL1     0.2441
     8 O         10.700101   6.292239   -2.950216 O.2        1 UNL1     -0.2702
     9 N         9.125775   5.677214   -4.498205 N.am        1 UNL1     -0.2772
     10 C         7.843038   6.063555   -4.184122 C.2        1 UNL1     0.1049
     11 C         6.997572   5.091915   -3.892018 C.2        1 UNL1     0.0801
     12 C         6.544579   7.669821   -2.773006 C.ar        1 UNL1     0.0753
     13 C         5.78592   6.541695   -2.325374 C.ar        1 UNL1     0.0305
     14 C         5.903027   5.236048   -2.970838 C.2        1 UNL1     0.0924
     15 N         7.120493   3.762974   -4.051187 N.pl3        1 UNL1     -0.3170
     16 C         5.850864   3.163468   -3.736724 C.3        1 UNL1     0.1275
     17 N         5.214459   4.118503   -2.756611 N.2        1 UNL1     -0.2557
     18 C         4.997692   3.222368   -5.000183 C.3        1 UNL1     0.0016
     19 C         5.752472   2.538511   -6.129004 C.3        1 UNL1     0.0026
     20 N         6.02306   1.160464   -5.743263 N.3        1 UNL1     -0.3018
     21 C         6.786761   1.000218   -4.504129 C.3        1 UNL1     0.0026
     22 C         6.008113   1.690498   -3.382917 C.3        1 UNL1     0.0016
     23 C         6.467505   0.341081   -6.853093 C.3        1 UNL1     0.0012
     24 C         5.311884   0.091346   -7.834892 C.3        1 UNL1     -0.0339
     25 C         5.347051   1.083547   -9.008927 C.3        1 UNL1     -0.0615
     26 C         5.341235   -1.348126   -8.31846 C.3        1 UNL1     -0.0615
     27 C         6.339727   8.937443   -2.233293 C.ar        1 UNL1     0.1347
     28 C         5.380836   9.206711   -1.273048 C.ar        1 UNL1     0.0342
     29 C         4.679677   8.072065   -0.812484 C.ar        1 UNL1     0.1435
     30 C         4.899323   6.790112   -1.318025 C.ar        1 UNL1     0.0774
     31 O         3.638867   8.185336   0.041267 O.3        1 UNL1     -0.4436
     32 C         2.917469   6.952337   -0.100758 C.3        1 UNL1     0.3143
     33 C         3.930888   5.959508   -0.633192 C.2        1 UNL1     0.2504
     34 C         4.933757   10.572686   -0.832215 C.3        1 UNL1     -0.0327
     35 O         2.557271   6.515501   1.215557 O.2        1 UNL1     -0.4528
     36 C         -0.68538   4.582499   0.819571 C.3        1 UNL1     0.0854
     37 C         -0.990589   3.321865   -0.077743 C.3        1 UNL1     0.0236
     38 C         -1.590624   2.060644   0.710306 C.3        1 UNL1     0.1131
     39 C         -0.864404   1.529855   2.011512 C.3        1 UNL1     0.0200
     40 C         0.796836   1.384733   2.052257 C.3        1 UNL1     0.0661
     41 C         1.756107   0.616182   0.883181 C.3        1 UNL1     0.0091
     42 C         3.463459   0.979191   0.318756 C.3        1 UNL1     0.0661
     43 C         7.494392   7.462393   -3.894206 C.2        1 UNL1     0.2131
     44 O         7.893864   8.360594   -4.612813 O.2        1 UNL1     -0.2851
     45 O         7.151614   9.97277   -2.69196 O.3        1 UNL1     -0.5056
     46 O         3.947217   4.755974   -0.502451 O.2        1 UNL1     -0.2836
     47 C         5.563677   1.320681   1.928191 C.3        1 UNL1     -0.0566
     48 O         3.912402   -0.431802   0.400391 O.3        1 UNL1     -0.3909
     49 C         0.921663   0.383411   -0.356584 C.3        1 UNL1     -0.0577
     50 O         1.396825   2.602738   2.44494 O.3        1 UNL1     -0.3910
     51 O         -0.809066   4.392759   2.211021 O.3        1 UNL1     -0.3753
     52 C         0.053613   3.161687   -1.230537 C.3        1 UNL1     -0.0564
     53 O         -2.193193   1.021529   -0.189403 O.3        1 UNL1     -0.4608
     54 C         -2.427185   -0.285291   0.150305 C.2        1 UNL1     0.3042
     55 O         -1.857946   -1.284266   -0.287705 O.2        1 UNL1     -0.2512
     56 C         -3.466887   -0.451223   1.221845 C.3        1 UNL1     0.0332
     57 C         -1.585278   2.198638   3.272957 C.3        1 UNL1     -0.0567
     58 C         1.841934   7.197179   -1.184642 C.3        1 UNL1     0.0210
     59 C         -1.122372   5.571669   2.951207 C.3        1 UNL1     0.0372
     60 C         0.643397   5.211924   0.588627 C.2        1 UNL1     -0.0208
     61 C         1.556446   5.64737   1.457807 C.2        1 UNL1     0.0882
     62 H         4.690694   2.734146   0.57751 H        1 UNL1     0.0365
     63 H         6.336628   3.610334   -0.25521 H        1 UNL1     0.0576
     64 H         8.342696   1.492041   -1.247833 H        1 UNL1     0.0615
     65 H         8.274579   4.609416   -1.43544 H        1 UNL1     0.0622
     66 H         -1.430299   5.328845   0.509555 H        1 UNL1     0.0645
     67 H         -1.856373   3.631024   -0.688806 H        1 UNL1     0.0362
     68 H         -2.537713   2.497275   1.062297 H        1 UNL1     0.0741
     69 H         -1.195621   0.51867   2.206981 H        1 UNL1     0.0359
     70 H         0.909007   0.724415   2.933426 H        1 UNL1     0.0600
     71 H         1.800057   -0.40498   1.310093 H        1 UNL1     0.0348
     72 H         3.35771   1.467353   1.298465 H        1 UNL1     0.0602
     73 H         0.760973   5.409221   -0.447953 H        1 UNL1     0.0628
     74 H         1.539233   5.436684   2.527644 H        1 UNL1     0.1022
     75 H         10.95447   2.256698   -3.434186 H        1 UNL1     0.0279
     76 H         10.795736   3.444746   -4.665708 H        1 UNL1     0.0279
     77 H         11.914755   3.66692   -3.260812 H        1 UNL1     0.0279
     78 H         9.063855   4.807258   -5.023009 H        1 UNL1     0.1553
     79 H         7.785709   3.33516   -4.66876 H        1 UNL1     0.1484
     80 H         4.036585   2.73119   -4.805803 H        1 UNL1     0.0317
     81 H         4.770752   4.259068   -5.271112 H        1 UNL1     0.0317
     82 H         6.682936   3.07005   -6.377227 H        1 UNL1     0.0428
     83 H         5.127071   2.59351   -7.020575 H        1 UNL1     0.0428
     84 H         6.907424   -0.042708   -4.195006 H        1 UNL1     0.0428
     85 H         7.816734   1.368511   -4.608213 H        1 UNL1     0.0428
     86 H         6.524838   1.440252   -2.474974 H        1 UNL1     0.0317
     87 H         5.028821   1.212614   -3.257576 H        1 UNL1     0.0317
     88 H         7.263294   0.883084   -7.380585 H        1 UNL1     0.0429
     89 H         6.90043   -0.604588   -6.502293 H        1 UNL1     0.0429
     90 H         4.358961   0.210176   -7.305713 H        1 UNL1     0.0308
     91 H         6.29772   1.028631   -9.547736 H        1 UNL1     0.0233
     92 H         4.528334   0.887301   -9.705202 H        1 UNL1     0.0233
     93 H         5.226913   2.123152   -8.680867 H        1 UNL1     0.0233
     94 H         4.646559   -1.479757   -9.155081 H        1 UNL1     0.0233
     95 H         6.344713   -1.603771   -8.670084 H        1 UNL1     0.0233
     96 H         5.058688   -2.042427   -7.522168 H        1 UNL1     0.0233
     97 H         4.138521   10.52274   -0.094424 H        1 UNL1     0.0280
     98 H         5.745691   11.141769   -0.360873 H        1 UNL1     0.0280
     99 H         4.562641   11.138263   -1.702554 H        1 UNL1     0.0280
     100 H         6.684322   10.72379   -3.013253 H        1 UNL1     0.2922
     101 H         4.701107   0.886819   2.433555 H        1 UNL1     0.0236
     102 H         6.014408   2.126135   2.507043 H        1 UNL1     0.0236
     103 H         6.320129   0.518203   1.926884 H        1 UNL1     0.0236
     104 H         4.332199   -0.557692   1.273829 H        1 UNL1     0.2098
     105 H         0.708637   1.282193   -0.92984 H        1 UNL1     0.0234
     106 H         1.291078   -0.404512   -1.012814 H        1 UNL1     0.0234
     107 H         0.0   -0.0   0.0 H        1 UNL1     0.0234
     108 H         1.198524   3.260761   1.751074 H        1 UNL1     0.2098
     109 H         1.078578   3.048469   -0.850615 H        1 UNL1     0.0234
     110 H         -0.178799   2.334533   -1.909907 H        1 UNL1     0.0234
     111 H         0.074408   4.04451   -1.883329 H        1 UNL1     0.0234
     112 H         -3.599062   -1.513015   1.450918 H        1 UNL1     0.0342
     113 H         -3.223576   0.114846   2.119737 H        1 UNL1     0.0342
     114 H         -4.421686   -0.068616   0.835665 H        1 UNL1     0.0342
     115 H         -2.654829   1.95009   3.311344 H        1 UNL1     0.0234
     116 H         -1.148494   1.918983   4.233718 H        1 UNL1     0.0234
     117 H         -1.62417   3.300484   3.224346 H        1 UNL1     0.0234
     118 H         0.940846   7.683853   -0.772096 H        1 UNL1     0.0309
     119 H         2.210929   7.785261   -2.030931 H        1 UNL1     0.0309
     120 H         1.453488   6.265123   -1.609481 H        1 UNL1     0.0309
     121 H         -0.301538   6.275045   2.813906 H        1 UNL1     0.0524
     122 H         -2.042388   6.060479   2.589722 H        1 UNL1     0.0524
     123 H         -1.240002   5.333893   4.00464 H        1 UNL1     0.0524
@<TRIPOS>BOND
     1     1     2    1
     2     1    42    1
     3     2     3    2
     4     3     4    1
     5     4     5    2
     6     5     7    1
     7     6    75    1
     8     6    76    1
     9     6    77    1
    10     7     9   am
    11     9    10    1
    12    10    11    2
    13    10    43    1
    14    11    14    1
    15    11    15    1
    16    12    13   ar
    17    12    27   ar
    18    12    43    1
    19    13    14    1
    20    13    30   ar
    21    14    17    2
    22    15    16    1
    23    16    17    1
    24    16    18    1
    25    16    22    1
    26    18    19    1
    27    19    20    1
    28    20    21    1
    29    21    22    1
    30    23    24    1
    31    23    88    1
    32    23    89    1
    33    24    25    1
    34    24    26    1
    35    24    90    1
    36    25    91    1
    37    25    92    1
    38    25    93    1
    39    26    94    1
    40    26    95    1
    41    26    96    1
    42    27    28   ar
    43    28    29   ar
    44    29    30   ar
    45    29    31    1
    46    30    33    1
    47    31    32    1
    48    32    33    1
    49    32    35    1
    50    34    97    1
    51    34    98    1
    52    34    99    1
    53    35    61    1
    54    36    37    1
    55    36    60    1
    56    37    38    1
    57    38    39    1
    58    39    40    1
    59    40    41    1
    60    41    42    1
    61    45   100    1
    62    47   101    1
    63    47   102    1
    64    47   103    1
    65    48   104    1
    66    49   105    1
    67    49   106    1
    68    49   107    1
    69    50   108    1
    70    51    59    1
    71    52   109    1
    72    52   110    1
    73    52   111    1
    74    53    54    1
    75    54    55    2
    76    54    56    1
    77    56   112    1
    78    56   113    1
    79    56   114    1
    80    57   115    1
    81    57   116    1
    82    57   117    1
    83    58   118    1
    84    58   119    1
    85    58   120    1
    86    59   121    1
    87    59   122    1
    88    59   123    1
    89    60    61    2
    90     1    47    1
    91     1    62    1
    92     2    63    1
    93     3    64    1
    94     4    65    1
    95     5     6    1
    96     7     8    2
    97     9    78    1
    98    15    79    1
    99    18    80    1
   100    18    81    1
   101    19    82    1
   102    19    83    1
   103    20    23    1
   104    21    84    1
   105    21    85    1
   106    22    86    1
   107    22    87    1
   108    27    45    1
   109    28    34    1
   110    32    58    1
   111    33    46    2
   112    36    51    1
   113    36    66    1
   114    37    52    1
   115    37    67    1
   116    38    53    1
   117    38    68    1
   118    42    48    1
   119    42    72    1
   120    43    44    2
   121    60    73    1
   122    61    74    1
   123    39    69    1
   124    39    57    1
   125    40    70    1
   126    40    50    1
   127    41    71    1
   128    41    49    1
