@<TRIPOS>MOLECULE
*****
 123 128 0 0 0
SMALL
GASTEIGER

@<TRIPOS>ATOM
     1 C         4.971298   2.240092   0.529094 C.3        1 UNL1     0.0009
     2 C         6.358412   3.11728   -0.333167 C.2        1 UNL1     -0.0787
     3 C         7.670768   3.096083   -0.944165 C.2        1 UNL1     -0.0649
     4 C         8.456459   4.350669   -1.765786 C.2        1 UNL1     -0.0542
     5 C         9.482342   4.67034   -2.689069 C.2        1 UNL1     0.0115
     6 C         10.701038   4.095486   -3.462144 C.3        1 UNL1     -0.0348
     7 C         9.460084   6.10491   -3.409141 C.2        1 UNL1     0.2441
     8 O         10.184405   7.030755   -3.070472 O.2        1 UNL1     -0.2702
     9 N         8.743566   6.146145   -4.617881 N.am        1 UNL1     -0.2772
     10 C         7.417495   6.426521   -4.380717 C.2        1 UNL1     0.1049
     11 C         6.65751   5.401201   -4.041067 C.2        1 UNL1     0.0801
     12 C         5.91212   7.999703   -3.149344 C.ar        1 UNL1     0.0753
     13 C         5.246867   6.839634   -2.639163 C.ar        1 UNL1     0.0305
     14 C         5.516032   5.506407   -3.173119 C.2        1 UNL1     0.0924
     15 N         6.914025   4.082688   -4.088522 N.pl3        1 UNL1     -0.3170
     16 C         5.695563   3.386297   -3.771278 C.3        1 UNL1     0.1275
     17 N         4.929387   4.345896   -2.893856 N.2        1 UNL1     -0.2557
     18 C         4.895143   3.263496   -5.064317 C.3        1 UNL1     0.0016
     19 C         5.759342   2.573271   -6.107552 C.3        1 UNL1     0.0026
     20 N         6.144263   1.262395   -5.603103 N.3        1 UNL1     -0.3018
     21 C         6.866463   1.273928   -4.329265 C.3        1 UNL1     0.0026
     22 C         5.978236   1.967579   -3.294956 C.3        1 UNL1     0.0016
     23 C         6.712036   0.408443   -6.627331 C.3        1 UNL1     0.0012
     24 C         5.62848   -0.028931   -7.625512 C.3        1 UNL1     -0.0339
     25 C         5.854441   0.597799   -9.011228 C.3        1 UNL1     -0.0615
     26 C         5.570625   -1.544795   -7.700292 C.3        1 UNL1     -0.0615
     27 C         5.563838   9.278418   -2.720733 C.ar        1 UNL1     0.1347
     28 C         4.543598   9.524196   -1.819205 C.ar        1 UNL1     0.0342
     29 C         3.935604   8.364341   -1.293616 C.ar        1 UNL1     0.1435
     30 C         4.298521   7.075491   -1.686521 C.ar        1 UNL1     0.0774
     31 O         2.85339   8.439082   -0.488486 O.3        1 UNL1     -0.4436
     32 C         2.260314   7.133487   -0.555968 C.3        1 UNL1     0.3143
     33 C         3.386024   6.208006   -0.971269 C.2        1 UNL1     0.2504
     34 C         3.949192   10.868937   -1.505431 C.3        1 UNL1     -0.0327
     35 O         1.888079   6.765256   0.777861 O.2        1 UNL1     -0.4528
     36 C         -1.134375   4.49612   0.425888 C.3        1 UNL1     0.0854
     37 C         -1.278811   3.146454   -0.37727 C.3        1 UNL1     0.0236
     38 C         -1.788013   1.896114   0.488241 C.3        1 UNL1     0.1131
     39 C         -1.070171   1.541062   1.852393 C.3        1 UNL1     0.0200
     40 C         0.594089   1.564656   1.96248 C.3        1 UNL1     0.0661
     41 C         1.671486   0.807563   0.893071 C.3        1 UNL1     0.0091
     42 C         3.358568   1.293501   0.361075 C.3        1 UNL1     0.0661
     43 C         6.924238   7.802051   -4.216495 C.2        1 UNL1     0.2131
     44 O         7.265864   8.677689   -4.990632 O.2        1 UNL1     -0.2851
     45 O         6.291398   10.350842   -3.232594 O.3        1 UNL1     -0.5056
     46 O         3.512182   5.025568   -0.74372 O.2        1 UNL1     -0.2836
     47 C         5.34603   1.963496   2.00999 C.3        1 UNL1     -0.0566
     48 O         3.936945   -0.055699   0.571445 O.3        1 UNL1     -0.3909
     49 C         0.91667   0.399053   -0.352267 C.3        1 UNL1     -0.0577
     50 O         1.057213   2.862556   2.276635 O.3        1 UNL1     -0.3910
     51 O         -1.298305   4.402211   1.822934 O.3        1 UNL1     -0.3753
     52 C         -0.176015   3.002604   -1.476405 C.3        1 UNL1     -0.0564
     53 O         -2.249319   0.736604   -0.345461 O.3        1 UNL1     -0.4608
     54 C         -2.05551   -0.586154   -0.044331 C.2        1 UNL1     0.3042
     55 O         -1.225433   -1.350092   -0.535462 O.2        1 UNL1     -0.2512
     56 C         -2.947914   -1.089887   1.054114 C.3        1 UNL1     0.0332
     57 C         -1.904841   2.229847   3.030135 C.3        1 UNL1     -0.0567
     58 C         1.213287   7.186908   -1.69281 C.3        1 UNL1     0.0210
     59 C         -2.513617   4.958323   2.322557 C.3        1 UNL1     0.0372
     60 C         0.136489   5.234447   0.191497 C.2        1 UNL1     -0.0208
     61 C         0.965779   5.823433   1.054119 C.2        1 UNL1     0.0882
     62 H         4.399649   3.175963   0.520492 H        1 UNL1     0.0365
     63 H         5.987815   4.144415   -0.322156 H        1 UNL1     0.0576
     64 H         8.228236   2.165338   -1.070853 H        1 UNL1     0.0615
     65 H         7.869363   5.237082   -1.510691 H        1 UNL1     0.0622
     66 H         -1.933616   5.139107   0.031138 H        1 UNL1     0.0645
     67 H         -2.14351   3.320667   -1.040975 H        1 UNL1     0.0362
     68 H         -2.786725   2.262517   0.77081 H        1 UNL1     0.0741
     69 H         -1.310846   0.520014   2.116861 H        1 UNL1     0.0359
     70 H         0.731549   0.988131   2.897244 H        1 UNL1     0.0600
     71 H         1.795029   -0.168517   1.401956 H        1 UNL1     0.0348
     72 H         3.164931   1.842399   1.294098 H        1 UNL1     0.0602
     73 H         0.278537   5.362431   -0.852865 H        1 UNL1     0.0628
     74 H         0.923411   5.694647   2.136181 H        1 UNL1     0.1022
     75 H         11.494257   3.761092   -2.750794 H        1 UNL1     0.0279
     76 H         10.522489   3.199292   -4.052081 H        1 UNL1     0.0279
     77 H         11.237622   4.861746   -4.040612 H        1 UNL1     0.0279
     78 H         8.787761   5.236702   -5.072895 H        1 UNL1     0.1553
     79 H         7.642861   3.676786   -4.646173 H        1 UNL1     0.1484
     80 H         3.978209   2.695926   -4.864662 H        1 UNL1     0.0317
     81 H         4.581502   4.248825   -5.425437 H        1 UNL1     0.0317
     82 H         6.644218   3.173727   -6.365155 H        1 UNL1     0.0428
     83 H         5.170006   2.497633   -7.02189 H        1 UNL1     0.0428
     84 H         7.073389   0.274827   -3.933297 H        1 UNL1     0.0428
     85 H         7.859836   1.733313   -4.426696 H        1 UNL1     0.0428
     86 H         6.477533   1.840001   -2.352399 H        1 UNL1     0.0317
     87 H         5.044875   1.40611   -3.165776 H        1 UNL1     0.0317
     88 H         7.473844   0.984557   -7.168659 H        1 UNL1     0.0429
     89 H         7.218397   -0.46006   -6.186793 H        1 UNL1     0.0429
     90 H         4.647642   0.290262   -7.253646 H        1 UNL1     0.0308
     91 H         6.900334   0.51196   -9.320811 H        1 UNL1     0.0233
     92 H         5.218431   0.119593   -9.75984 H        1 UNL1     0.0233
     93 H         5.602816   1.665061   -9.032942 H        1 UNL1     0.0233
     94 H         5.11204   -1.859168   -8.644064 H        1 UNL1     0.0233
     95 H         6.581773   -1.959629   -7.662167 H        1 UNL1     0.0233
     96 H         4.986206   -1.962976   -6.875945 H        1 UNL1     0.0233
     97 H         2.882994   10.900671   -1.709012 H        1 UNL1     0.0280
     98 H         4.060845   11.133702   -0.445861 H        1 UNL1     0.0280
     99 H         4.441158   11.641957   -2.118215 H        1 UNL1     0.0280
     100 H         5.976226   10.680445   -4.055789 H        1 UNL1     0.2922
     101 H         4.542306   1.410328   2.495468 H        1 UNL1     0.0236
     102 H         5.612403   2.86523   2.560356 H        1 UNL1     0.0236
     103 H         6.229288   1.309101   2.098392 H        1 UNL1     0.0236
     104 H         3.201646   -0.660942   0.790506 H        1 UNL1     0.2098
     105 H         0.685029   1.219751   -1.026514 H        1 UNL1     0.0234
     106 H         1.362209   -0.428724   -0.903817 H        1 UNL1     0.0234
     107 H         0.0   -0.0   0.0 H        1 UNL1     0.0234
     108 H         2.030821   2.849305   2.201275 H        1 UNL1     0.2098
     109 H         -0.223737   3.808922   -2.22158 H        1 UNL1     0.0234
     110 H         0.837185   2.943907   -1.06443 H        1 UNL1     0.0234
     111 H         -0.287909   2.068051   -2.042122 H        1 UNL1     0.0234
     112 H         -3.353112   -2.06991   0.784458 H        1 UNL1     0.0342
     113 H         -2.433959   -1.130076   2.013322 H        1 UNL1     0.0342
     114 H         -3.791453   -0.393508   1.157373 H        1 UNL1     0.0342
     115 H         -1.594382   1.86421   4.018625 H        1 UNL1     0.0234
     116 H         -1.834227   3.319256   3.045948 H        1 UNL1     0.0234
     117 H         -2.97441   1.957886   3.028604 H        1 UNL1     0.0234
     118 H         0.180041   7.130313   -1.307835 H        1 UNL1     0.0309
     119 H         1.311473   8.074423   -2.32596 H        1 UNL1     0.0309
     120 H         1.279502   6.325274   -2.366092 H        1 UNL1     0.0309
     121 H         -2.341709   5.249183   3.358513 H        1 UNL1     0.0524
     122 H         -2.818117   5.862744   1.76998 H        1 UNL1     0.0524
     123 H         -3.313277   4.225156   2.266838 H        1 UNL1     0.0524
@<TRIPOS>BOND
     1     1     2    1
     2     1    42    1
     3     2     3    2
     4     3     4    1
     5     4     5    2
     6     5     7    1
     7     6    75    1
     8     6    76    1
     9     6    77    1
    10     7     9   am
    11     9    10    1
    12    10    11    2
    13    10    43    1
    14    11    14    1
    15    11    15    1
    16    12    13   ar
    17    12    27   ar
    18    12    43    1
    19    13    14    1
    20    13    30   ar
    21    14    17    2
    22    15    16    1
    23    16    17    1
    24    16    18    1
    25    16    22    1
    26    18    19    1
    27    19    20    1
    28    20    21    1
    29    21    22    1
    30    23    24    1
    31    23    88    1
    32    23    89    1
    33    24    25    1
    34    24    26    1
    35    24    90    1
    36    25    91    1
    37    25    92    1
    38    25    93    1
    39    26    94    1
    40    26    95    1
    41    26    96    1
    42    27    28   ar
    43    28    29   ar
    44    29    30   ar
    45    29    31    1
    46    30    33    1
    47    31    32    1
    48    32    33    1
    49    32    35    1
    50    34    97    1
    51    34    98    1
    52    34    99    1
    53    35    61    1
    54    36    37    1
    55    36    60    1
    56    37    38    1
    57    38    39    1
    58    39    40    1
    59    40    41    1
    60    41    42    1
    61    45   100    1
    62    47   101    1
    63    47   102    1
    64    47   103    1
    65    48   104    1
    66    49   105    1
    67    49   106    1
    68    49   107    1
    69    50   108    1
    70    51    59    1
    71    52   109    1
    72    52   110    1
    73    52   111    1
    74    53    54    1
    75    54    55    2
    76    54    56    1
    77    56   112    1
    78    56   113    1
    79    56   114    1
    80    57   115    1
    81    57   116    1
    82    57   117    1
    83    58   118    1
    84    58   119    1
    85    58   120    1
    86    59   121    1
    87    59   122    1
    88    59   123    1
    89    60    61    2
    90     1    47    1
    91     1    62    1
    92     2    63    1
    93     3    64    1
    94     4    65    1
    95     5     6    1
    96     7     8    2
    97     9    78    1
    98    15    79    1
    99    18    80    1
   100    18    81    1
   101    19    82    1
   102    19    83    1
   103    20    23    1
   104    21    84    1
   105    21    85    1
   106    22    86    1
   107    22    87    1
   108    27    45    1
   109    28    34    1
   110    32    58    1
   111    33    46    2
   112    36    51    1
   113    36    66    1
   114    37    52    1
   115    37    67    1
   116    38    53    1
   117    38    68    1
   118    42    48    1
   119    42    72    1
   120    43    44    2
   121    60    73    1
   122    61    74    1
   123    39    69    1
   124    39    57    1
   125    40    70    1
   126    40    50    1
   127    41    71    1
   128    41    49    1
