@<TRIPOS>MOLECULE
*****
 123 128 0 0 0
SMALL
GASTEIGER

@<TRIPOS>ATOM
     1 C         -2.100599   2.497126   -2.52926 C.3        1 UNL1     0.0009
     2 C         -3.722667   3.33794   -2.214673 C.2        1 UNL1     -0.0787
     3 C         -5.166232   3.362777   -2.322144 C.2        1 UNL1     -0.0649
     4 C         -6.240005   4.48988   -1.656556 C.2        1 UNL1     -0.0542
     5 C         -7.583098   4.728523   -1.274158 C.2        1 UNL1     0.0115
     6 C         -9.030402   4.169614   -1.353244 C.3        1 UNL1     -0.0348
     7 C         -7.90084   5.936709   -0.266033 C.2        1 UNL1     0.2441
     8 O         -8.356356   7.009994   -0.636289 O.2        1 UNL1     -0.2702
     9 N         -7.86781   5.591278   1.096221 N.am        1 UNL1     -0.2772
     10 C         -6.592587   5.726378   1.595095 C.2        1 UNL1     0.1049
     11 C         -5.774811   4.71082   1.385075 C.2        1 UNL1     0.0801
     12 C         -4.660066   7.311408   1.696968 C.ar        1 UNL1     0.0753
     13 C         -3.842808   6.21968   1.262426 C.ar        1 UNL1     0.0305
     14 C         -4.353444   4.851296   1.219674 C.2        1 UNL1     0.0924
     15 N         -6.035969   3.468455   0.943652 N.pl3        1 UNL1     -0.3170
     16 C         -4.825919   2.69832   1.05734 C.3        1 UNL1     0.1275
     17 N         -3.717824   3.716444   0.942137 N.2        1 UNL1     -0.2557
     18 C         -4.762816   2.163417   2.484785 C.3        1 UNL1     0.0016
     19 C         -6.034659   1.379646   2.767107 C.3        1 UNL1     0.0026
     20 N         -6.137347   0.291983   1.804052 N.3        1 UNL1     -0.3018
     21 C         -6.142872   0.704187   0.398909 C.3        1 UNL1     0.0026
     22 C         -4.854416   1.485725   0.136281 C.3        1 UNL1     0.0016
     23 C         -7.143243   -0.687266   2.164451 C.3        1 UNL1     0.0012
     24 C         -6.692298   -1.496355   3.390738 C.3        1 UNL1     -0.0339
     25 C         -7.678076   -1.3411   4.560436 C.3        1 UNL1     -0.0615
     26 C         -6.500696   -2.954376   3.010943 C.3        1 UNL1     -0.0615
     27 C         -4.132648   8.591417   1.85034 C.ar        1 UNL1     0.1347
     28 C         -2.799   8.892296   1.638431 C.ar        1 UNL1     0.0342
     29 C         -2.024109   7.812577   1.16418 C.ar        1 UNL1     0.1435
     30 C         -2.546907   6.533259   0.971183 C.ar        1 UNL1     0.0774
     31 O         -0.685506   7.917565   1.015431 O.3        1 UNL1     -0.4436
     32 C         -0.21569   6.56124   0.992416 C.3        1 UNL1     0.3143
     33 C         -1.410493   5.735413   0.560364 C.2        1 UNL1     0.2504
     34 C         -2.112552   10.173713   2.021656 C.3        1 UNL1     -0.0327
     35 O         0.758139   6.465465   -0.054358 O.2        1 UNL1     -0.4528
     36 C         3.196004   3.768015   1.035904 C.3        1 UNL1     0.0854
     37 C         2.913893   2.261669   1.40854 C.3        1 UNL1     0.0236
     38 C         3.768176   1.188511   0.577711 C.3        1 UNL1     0.1131
     39 C         3.806713   1.268647   -1.001644 C.3        1 UNL1     0.0200
     40 C         2.410051   1.555465   -1.867385 C.3        1 UNL1     0.0661
     41 C         0.938803   0.731811   -1.681279 C.3        1 UNL1     0.0091
     42 C         -0.78724   1.316502   -1.891784 C.3        1 UNL1     0.0661
     43 C         -6.067235   7.016948   2.064975 C.2        1 UNL1     0.2131
     44 O         -6.734738   7.727099   2.79495 O.2        1 UNL1     -0.2851
     45 O         -5.005995   9.607389   2.233098 O.3        1 UNL1     -0.5056
     46 O         -1.421836   4.669499   -0.013703 O.2        1 UNL1     -0.2836
     47 C         -1.70492   2.630843   -4.024432 C.3        1 UNL1     -0.0566
     48 O         -1.203032   0.150977   -2.708966 O.3        1 UNL1     -0.3909
     49 C         0.982418   -0.06018   -0.393513 C.3        1 UNL1     -0.0577
     50 O         2.174262   2.943414   -1.992781 O.3        1 UNL1     -0.3910
     51 O         4.022179   3.980667   -0.086435 O.3        1 UNL1     -0.3753
     52 C         1.412592   2.024467   1.775663 C.3        1 UNL1     -0.0564
     53 O         3.749403   -0.187489   1.17654 O.3        1 UNL1     -0.4608
     54 C         3.713604   -1.361465   0.470545 C.2        1 UNL1     0.3042
     55 O         2.741132   -2.092004   0.284936 O.2        1 UNL1     -0.2512
     56 C         5.024135   -1.71707   -0.171924 C.3        1 UNL1     0.0332
     57 C         5.118682   2.086693   -1.411172 C.3        1 UNL1     -0.0567
     58 C         0.140813   6.196984   2.452468 C.3        1 UNL1     0.0210
     59 C         5.33239   4.458138   0.215614 C.3        1 UNL1     0.0372
     60 C         1.981309   4.605348   0.839559 C.2        1 UNL1     -0.0208
     61 C         1.687269   5.492142   -0.112219 C.2        1 UNL1     0.0882
     62 H         -1.596325   3.313261   -1.9979 H        1 UNL1     0.0365
     63 H         -3.383067   4.275227   -1.768989 H        1 UNL1     0.0576
     64 H         -5.724354   2.517927   -2.731822 H        1 UNL1     0.0615
     65 H         -5.59364   5.317856   -1.352992 H        1 UNL1     0.0622
     66 H         3.706371   4.179648   1.918021 H        1 UNL1     0.0645
     67 H         3.344506   2.150255   2.418847 H        1 UNL1     0.0362
     68 H         4.781193   1.463847   0.908633 H        1 UNL1     0.0741
     69 H         4.134995   0.314021   -1.390653 H        1 UNL1     0.0359
     70 H         2.741823   1.239135   -2.874819 H        1 UNL1     0.0600
     71 H         1.069778   -0.070282   -2.433909 H        1 UNL1     0.0348
     72 H         -0.155482   2.034661   -2.434411 H        1 UNL1     0.0602
     73 H         1.347328   4.504742   1.68525 H        1 UNL1     0.0628
     74 H         2.252811   5.615065   -1.036497 H        1 UNL1     0.1022
     75 H         -9.276387   3.86497   -2.399053 H        1 UNL1     0.0279
     76 H         -9.230673   3.260245   -0.791099 H        1 UNL1     0.0279
     77 H         -9.794088   4.938694   -1.166157 H        1 UNL1     0.0279
     78 H         -8.139066   4.616669   1.208627 H        1 UNL1     0.1553
     79 H         -6.948883   3.052195   0.959404 H        1 UNL1     0.1484
     80 H         -3.871827   1.532885   2.591248 H        1 UNL1     0.0317
     81 H         -4.655593   2.981701   3.204899 H        1 UNL1     0.0317
     82 H         -6.925728   2.023671   2.733341 H        1 UNL1     0.0428
     83 H         -5.969569   1.00883   3.790488 H        1 UNL1     0.0428
     84 H         -6.140145   -0.134487   -0.304249 H        1 UNL1     0.0428
     85 H         -7.0516   1.265513   0.141143 H        1 UNL1     0.0428
     86 H         -4.829396   1.654803   -0.924273 H        1 UNL1     0.0317
     87 H         -3.983561   0.842239   0.311306 H        1 UNL1     0.0317
     88 H         -8.06626   -0.150578   2.419988 H        1 UNL1     0.0429
     89 H         -7.378305   -1.347035   1.319332 H        1 UNL1     0.0429
     90 H         -5.70744   -1.139219   3.714343 H        1 UNL1     0.0308
     91 H         -8.697709   -1.171966   4.201485 H        1 UNL1     0.0233
     92 H         -7.664677   -2.228689   5.197315 H        1 UNL1     0.0233
     93 H         -7.425068   -0.494612   5.210267 H        1 UNL1     0.0233
     94 H         -5.448276   -3.148724   2.777542 H        1 UNL1     0.0233
     95 H         -6.785067   -3.598857   3.847447 H        1 UNL1     0.0233
     96 H         -7.103281   -3.221971   2.138445 H        1 UNL1     0.0233
     97 H         -1.281618   10.003798   2.699821 H        1 UNL1     0.0280
     98 H         -1.689203   10.692601   1.151721 H        1 UNL1     0.0280
     99 H         -2.832859   10.843864   2.518799 H        1 UNL1     0.0280
     100 H         -5.802598   9.647721   1.733678 H        1 UNL1     0.2922
     101 H         -2.546186   2.342953   -4.654549 H        1 UNL1     0.0236
     102 H         -0.797677   2.083643   -4.278335 H        1 UNL1     0.0236
     103 H         -1.490424   3.675789   -4.304203 H        1 UNL1     0.0236
     104 H         -0.457705   -0.076856   -3.298498 H        1 UNL1     0.2098
     105 H         1.225851   -1.111969   -0.521156 H        1 UNL1     0.0234
     106 H         1.600363   0.378214   0.389993 H        1 UNL1     0.0234
     107 H         0.0   0.0   0.0 H        1 UNL1     0.0234
     108 H         2.946824   3.328838   -2.44925 H        1 UNL1     0.2098
     109 H         1.097942   2.618946   2.644744 H        1 UNL1     0.0234
     110 H         0.730475   2.209423   0.938853 H        1 UNL1     0.0234
     111 H         1.222913   0.977481   2.047306 H        1 UNL1     0.0234
     112 H         5.842562   -1.550102   0.534931 H        1 UNL1     0.0342
     113 H         5.03296   -2.739969   -0.545347 H        1 UNL1     0.0342
     114 H         5.178347   -1.048188   -1.029817 H        1 UNL1     0.0342
     115 H         5.543684   1.729018   -2.359133 H        1 UNL1     0.0234
     116 H         4.958914   3.162393   -1.508095 H        1 UNL1     0.0234
     117 H         5.967763   1.929054   -0.724038 H        1 UNL1     0.0234
     118 H         1.229618   6.086027   2.598064 H        1 UNL1     0.0309
     119 H         -0.246588   6.915811   3.181447 H        1 UNL1     0.0309
     120 H         -0.254723   5.219825   2.750492 H        1 UNL1     0.0309
     121 H         5.713047   4.960956   -0.672998 H        1 UNL1     0.0524
     122 H         5.330646   5.193037   1.037781 H        1 UNL1     0.0524
     123 H         5.981586   3.62971   0.484584 H        1 UNL1     0.0524
@<TRIPOS>BOND
     1     1     2    1
     2     1    42    1
     3     2     3    2
     4     3     4    1
     5     4     5    2
     6     5     7    1
     7     6    75    1
     8     6    76    1
     9     6    77    1
    10     7     9   am
    11     9    10    1
    12    10    11    2
    13    10    43    1
    14    11    14    1
    15    11    15    1
    16    12    13   ar
    17    12    27   ar
    18    12    43    1
    19    13    14    1
    20    13    30   ar
    21    14    17    2
    22    15    16    1
    23    16    17    1
    24    16    18    1
    25    16    22    1
    26    18    19    1
    27    19    20    1
    28    20    21    1
    29    21    22    1
    30    23    24    1
    31    23    88    1
    32    23    89    1
    33    24    25    1
    34    24    26    1
    35    24    90    1
    36    25    91    1
    37    25    92    1
    38    25    93    1
    39    26    94    1
    40    26    95    1
    41    26    96    1
    42    27    28   ar
    43    28    29   ar
    44    29    30   ar
    45    29    31    1
    46    30    33    1
    47    31    32    1
    48    32    33    1
    49    32    35    1
    50    34    97    1
    51    34    98    1
    52    34    99    1
    53    35    61    1
    54    36    37    1
    55    36    60    1
    56    37    38    1
    57    38    39    1
    58    39    40    1
    59    40    41    1
    60    41    42    1
    61    45   100    1
    62    47   101    1
    63    47   102    1
    64    47   103    1
    65    48   104    1
    66    49   105    1
    67    49   106    1
    68    49   107    1
    69    50   108    1
    70    51    59    1
    71    52   109    1
    72    52   110    1
    73    52   111    1
    74    53    54    1
    75    54    55    2
    76    54    56    1
    77    56   112    1
    78    56   113    1
    79    56   114    1
    80    57   115    1
    81    57   116    1
    82    57   117    1
    83    58   118    1
    84    58   119    1
    85    58   120    1
    86    59   121    1
    87    59   122    1
    88    59   123    1
    89    60    61    2
    90     1    47    1
    91     1    62    1
    92     2    63    1
    93     3    64    1
    94     4    65    1
    95     5     6    1
    96     7     8    2
    97     9    78    1
    98    15    79    1
    99    18    80    1
   100    18    81    1
   101    19    82    1
   102    19    83    1
   103    20    23    1
   104    21    84    1
   105    21    85    1
   106    22    86    1
   107    22    87    1
   108    27    45    1
   109    28    34    1
   110    32    58    1
   111    33    46    2
   112    36    51    1
   113    36    66    1
   114    37    52    1
   115    37    67    1
   116    38    53    1
   117    38    68    1
   118    42    48    1
   119    42    72    1
   120    43    44    2
   121    60    73    1
   122    61    74    1
   123    39    69    1
   124    39    57    1
   125    40    70    1
   126    40    50    1
   127    41    71    1
   128    41    49    1
