@<TRIPOS>MOLECULE
*****
 123 128 0 0 0
SMALL
GASTEIGER

@<TRIPOS>ATOM
     1 C         -4.558857   1.871809   0.47635 C.3        1 UNL1     0.0009
     2 C         -5.867299   2.471602   -0.692096 C.2        1 UNL1     -0.0787
     3 C         -6.691946   3.541895   -1.212169 C.2        1 UNL1     -0.0649
     4 C         -7.756207   3.490163   -2.527855 C.2        1 UNL1     -0.0542
     5 C         -8.45581   4.264001   -3.4864 C.2        1 UNL1     0.0115
     6 C         -8.85129   5.712234   -3.885824 C.3        1 UNL1     -0.0348
     7 C         -9.023827   3.542022   -4.80287 C.2        1 UNL1     0.2441
     8 O         -10.201887   3.24316   -4.942084 O.2        1 UNL1     -0.2702
     9 N         -8.132158   3.51181   -5.889224 N.am        1 UNL1     -0.2772
     10 C         -7.330243   2.395723   -5.821368 C.2        1 UNL1     0.1049
     11 C         -6.270518   2.487166   -5.038526 C.2        1 UNL1     0.0801
     12 C         -7.404581   -0.083371   -5.495945 C.ar        1 UNL1     0.0753
     13 C         -6.393907   0.096046   -4.49847 C.ar        1 UNL1     0.0305
     14 C         -5.701495   1.371887   -4.331601 C.2        1 UNL1     0.0924
     15 N         -5.720944   3.563851   -4.45095 N.pl3        1 UNL1     -0.3170
     16 C         -4.482189   3.150448   -3.84693 C.3        1 UNL1     0.1275
     17 N         -4.682979   1.687211   -3.536538 N.2        1 UNL1     -0.2557
     18 C         -3.409045   3.210278   -4.929743 C.3        1 UNL1     0.0016
     19 C         -3.385094   4.613853   -5.51369 C.3        1 UNL1     0.0026
     20 N         -3.103239   5.560875   -4.443767 N.3        1 UNL1     -0.3018
     21 C         -4.048035   5.53453   -3.325271 C.3        1 UNL1     0.0026
     22 C         -4.052607   4.116781   -2.750934 C.3        1 UNL1     0.0016
     23 C         -2.763823   6.881668   -4.93463 C.3        1 UNL1     0.0012
     24 C         -2.472268   6.837265   -6.442867 C.3        1 UNL1     -0.0339
     25 C         -2.132982   8.232999   -6.991384 C.3        1 UNL1     -0.0615
     26 C         -1.363945   5.839255   -6.729879 C.3        1 UNL1     -0.0615
     27 C         -7.973986   -1.332834   -5.729911 C.ar        1 UNL1     0.1347
     28 C         -7.587267   -2.479736   -5.05975 C.ar        1 UNL1     0.0342
     29 C         -6.625698   -2.27006   -4.04852 C.ar        1 UNL1     0.1435
     30 C         -6.072601   -1.017759   -3.778252 C.ar        1 UNL1     0.0774
     31 O         -6.067019   -3.303811   -3.382004 O.3        1 UNL1     -0.4436
     32 C         -4.859744   -2.764713   -2.822776 C.3        1 UNL1     0.3143
     33 C         -5.094029   -1.269836   -2.741131 C.2        1 UNL1     0.2504
     34 C         -7.968456   -3.886711   -5.427465 C.3        1 UNL1     -0.0327
     35 O         -4.761967   -3.245811   -1.476582 O.2        1 UNL1     -0.4528
     36 C         -1.049268   -3.4786   -0.721755 C.3        1 UNL1     0.0854
     37 C         0.053024   -2.352391   -0.786 C.3        1 UNL1     0.0236
     38 C         0.887441   -2.145372   0.567749 C.3        1 UNL1     0.1131
     39 C         0.123404   -1.958678   1.940215 C.3        1 UNL1     0.0200
     40 C         -1.213236   -0.965254   2.034764 C.3        1 UNL1     0.0661
     41 C         -1.309625   0.628133   1.460798 C.3        1 UNL1     0.0091
     42 C         -2.730854   1.560482   0.7707 C.3        1 UNL1     0.0661
     43 C         -7.76263   1.087333   -6.334702 C.2        1 UNL1     0.2131
     44 O         -8.285488   0.995459   -7.430565 O.2        1 UNL1     -0.2851
     45 O         -8.983666   -1.412666   -6.686786 O.3        1 UNL1     -0.5056
     46 O         -4.6008   -0.470421   -1.97725 O.2        1 UNL1     -0.2836
     47 C         -5.135141   1.745082   1.912253 C.3        1 UNL1     -0.0566
     48 O         -2.490378   2.765196   1.601334 O.3        1 UNL1     -0.3909
     49 C         -0.126869   0.893377   0.556238 C.3        1 UNL1     -0.0577
     50 O         -2.388675   -1.672996   1.6954 O.3        1 UNL1     -0.3910
     51 O         -1.284626   -4.038403   0.55051 O.3        1 UNL1     -0.3753
     52 C         -0.395827   -1.149148   -1.678013 C.3        1 UNL1     -0.0564
     53 O         2.138649   -1.337176   0.384378 O.3        1 UNL1     -0.4608
     54 C         3.307258   -1.794741   -0.165999 C.2        1 UNL1     0.3042
     55 O         3.795745   -2.91845   -0.054199 O.2        1 UNL1     -0.2512
     56 C         3.997309   -0.784678   -1.03796 C.3        1 UNL1     0.0332
     57 C         0.037416   -3.392721   2.64328 C.3        1 UNL1     -0.0567
     58 C         -3.739867   -3.038605   -3.853498 C.3        1 UNL1     0.0210
     59 C         -2.661354   -4.187509   0.894388 C.3        1 UNL1     0.0372
     60 C         -2.376626   -3.091508   -1.27261 C.2        1 UNL1     -0.0208
     61 C         -3.604037   -3.290025   -0.79012 C.2        1 UNL1     0.0882
     62 H         -4.634228   0.877434   0.020008 H        1 UNL1     0.0365
     63 H         -6.155267   1.534731   -1.173569 H        1 UNL1     0.0576
     64 H         -6.568261   4.574211   -0.877305 H        1 UNL1     0.0615
     65 H         -7.870345   2.421494   -2.728857 H        1 UNL1     0.0622
     66 H         -0.670318   -4.273563   -1.379386 H        1 UNL1     0.0645
     67 H         0.823719   -2.769568   -1.457232 H        1 UNL1     0.0362
     68 H         1.374054   -3.130271   0.636329 H        1 UNL1     0.0741
     69 H         0.800292   -1.514361   2.65772 H        1 UNL1     0.0359
     70 H         -1.276267   -0.834312   3.132007 H        1 UNL1     0.0600
     71 H         -1.012849   1.180731   2.373769 H        1 UNL1     0.0348
     72 H         -3.16345   0.71736   1.328662 H        1 UNL1     0.0602
     73 H         -2.247995   -2.700032   -2.251103 H        1 UNL1     0.0628
     74 H         -3.820727   -3.632076   0.222443 H        1 UNL1     0.1022
     75 H         -8.374893   6.452371   -3.198601 H        1 UNL1     0.0279
     76 H         -8.519608   6.053447   -4.863899 H        1 UNL1     0.0279
     77 H         -9.918784   5.921633   -3.723623 H        1 UNL1     0.0279
     78 H         -7.524754   4.327918   -5.855974 H        1 UNL1     0.1553
     79 H         -5.894559   4.507715   -4.744056 H        1 UNL1     0.1484
     80 H         -2.440998   2.943338   -4.48884 H        1 UNL1     0.0317
     81 H         -3.607406   2.476374   -5.718215 H        1 UNL1     0.0317
     82 H         -4.329389   4.859762   -6.02138 H        1 UNL1     0.0428
     83 H         -2.614384   4.633808   -6.28483 H        1 UNL1     0.0428
     84 H         -3.76958   6.19747   -2.500174 H        1 UNL1     0.0428
     85 H         -5.045459   5.885261   -3.624354 H        1 UNL1     0.0428
     86 H         -4.648667   4.167752   -1.858689 H        1 UNL1     0.0317
     87 H         -3.054293   3.861565   -2.374995 H        1 UNL1     0.0317
     88 H         -3.624978   7.541008   -4.764401 H        1 UNL1     0.0429
     89 H         -1.917856   7.307911   -4.380165 H        1 UNL1     0.0429
     90 H         -3.357683   6.461095   -6.968938 H        1 UNL1     0.0308
     91 H         -1.226657   8.633248   -6.52719 H        1 UNL1     0.0233
     92 H         -1.996253   8.199527   -8.074801 H        1 UNL1     0.0233
     93 H         -2.932879   8.960183   -6.806442 H        1 UNL1     0.0233
     94 H         -1.785501   4.91251   -7.133945 H        1 UNL1     0.0233
     95 H         -0.675596   6.249153   -7.474272 H        1 UNL1     0.0233
     96 H         -0.800956   5.596741   -5.824231 H        1 UNL1     0.0233
     97 H         -8.508909   -4.384611   -4.627942 H        1 UNL1     0.0280
     98 H         -8.629164   -3.920918   -6.303566 H        1 UNL1     0.0280
     99 H         -7.059152   -4.470378   -5.645624 H        1 UNL1     0.0280
     100 H         -8.964408   -2.193241   -7.2121 H        1 UNL1     0.2922
     101 H         -4.351541   1.94745   2.642099 H        1 UNL1     0.0236
     102 H         -5.626656   0.789926   2.094117 H        1 UNL1     0.0236
     103 H         -5.909845   2.503059   2.115965 H        1 UNL1     0.0236
     104 H         -2.221735   2.461576   2.4905 H        1 UNL1     0.2098
     105 H         -0.274901   1.706691   -0.14975 H        1 UNL1     0.0234
     106 H         0.824987   1.011088   1.073965 H        1 UNL1     0.0234
     107 H         0.0   0.0   0.0 H        1 UNL1     0.0234
     108 H         -3.066529   -1.011869   1.456248 H        1 UNL1     0.2098
     109 H         -1.46409   -0.919716   -1.560166 H        1 UNL1     0.0234
     110 H         0.194688   -0.242654   -1.506828 H        1 UNL1     0.0234
     111 H         -0.253538   -1.361823   -2.74594 H        1 UNL1     0.0234
     112 H         3.279884   -0.028538   -1.370976 H        1 UNL1     0.0342
     113 H         4.846859   -0.323283   -0.536739 H        1 UNL1     0.0342
     114 H         4.377819   -1.303302   -1.928693 H        1 UNL1     0.0342
     115 H         0.08076   -4.210139   1.910382 H        1 UNL1     0.0234
     116 H         0.820681   -3.572484   3.382354 H        1 UNL1     0.0234
     117 H         -0.936237   -3.589175   3.124266 H        1 UNL1     0.0234
     118 H         -3.661818   -2.233279   -4.604741 H        1 UNL1     0.0309
     119 H         -2.759612   -3.193912   -3.391781 H        1 UNL1     0.0309
     120 H         -3.934693   -3.930646   -4.458817 H        1 UNL1     0.0309
     121 H         -2.797564   -3.777602   1.894777 H        1 UNL1     0.0524
     122 H         -3.325442   -3.629284   0.213646 H        1 UNL1     0.0524
     123 H         -2.941304   -5.237011   0.878022 H        1 UNL1     0.0524
@<TRIPOS>BOND
     1     1     2    1
     2     1    42    1
     3     2     3    2
     4     3     4    1
     5     4     5    2
     6     5     7    1
     7     6    75    1
     8     6    76    1
     9     6    77    1
    10     7     9   am
    11     9    10    1
    12    10    11    2
    13    10    43    1
    14    11    14    1
    15    11    15    1
    16    12    13   ar
    17    12    27   ar
    18    12    43    1
    19    13    14    1
    20    13    30   ar
    21    14    17    2
    22    15    16    1
    23    16    17    1
    24    16    18    1
    25    16    22    1
    26    18    19    1
    27    19    20    1
    28    20    21    1
    29    21    22    1
    30    23    24    1
    31    23    88    1
    32    23    89    1
    33    24    25    1
    34    24    26    1
    35    24    90    1
    36    25    91    1
    37    25    92    1
    38    25    93    1
    39    26    94    1
    40    26    95    1
    41    26    96    1
    42    27    28   ar
    43    28    29   ar
    44    29    30   ar
    45    29    31    1
    46    30    33    1
    47    31    32    1
    48    32    33    1
    49    32    35    1
    50    34    97    1
    51    34    98    1
    52    34    99    1
    53    35    61    1
    54    36    37    1
    55    36    60    1
    56    37    38    1
    57    38    39    1
    58    39    40    1
    59    40    41    1
    60    41    42    1
    61    45   100    1
    62    47   101    1
    63    47   102    1
    64    47   103    1
    65    48   104    1
    66    49   105    1
    67    49   106    1
    68    49   107    1
    69    50   108    1
    70    51    59    1
    71    52   109    1
    72    52   110    1
    73    52   111    1
    74    53    54    1
    75    54    55    2
    76    54    56    1
    77    56   112    1
    78    56   113    1
    79    56   114    1
    80    57   115    1
    81    57   116    1
    82    57   117    1
    83    58   118    1
    84    58   119    1
    85    58   120    1
    86    59   121    1
    87    59   122    1
    88    59   123    1
    89    60    61    2
    90     1    47    1
    91     1    62    1
    92     2    63    1
    93     3    64    1
    94     4    65    1
    95     5     6    1
    96     7     8    2
    97     9    78    1
    98    15    79    1
    99    18    80    1
   100    18    81    1
   101    19    82    1
   102    19    83    1
   103    20    23    1
   104    21    84    1
   105    21    85    1
   106    22    86    1
   107    22    87    1
   108    27    45    1
   109    28    34    1
   110    32    58    1
   111    33    46    2
   112    36    51    1
   113    36    66    1
   114    37    52    1
   115    37    67    1
   116    38    53    1
   117    38    68    1
   118    42    48    1
   119    42    72    1
   120    43    44    2
   121    60    73    1
   122    61    74    1
   123    39    69    1
   124    39    57    1
   125    40    70    1
   126    40    50    1
   127    41    71    1
   128    41    49    1
