@<TRIPOS>MOLECULE
*****
 123 128 0 0 0
SMALL
GASTEIGER

@<TRIPOS>ATOM
     1 C         5.167103   1.758699   0.455297 C.3        1 UNL1     0.0009
     2 C         6.596539   2.566864   -0.405296 C.2        1 UNL1     -0.0787
     3 C         7.874089   2.47058   -1.079566 C.2        1 UNL1     -0.0649
     4 C         8.74414   3.706791   -1.841897 C.2        1 UNL1     -0.0542
     5 C         9.757283   4.00066   -2.787551 C.2        1 UNL1     0.0115
     6 C         10.880791   3.376693   -3.660316 C.3        1 UNL1     -0.0348
     7 C         9.845787   5.483661   -3.395714 C.2        1 UNL1     0.2441
     8 O         10.670667   6.307099   -3.024165 O.2        1 UNL1     -0.2702
     9 N         9.087323   5.688412   -4.561459 N.am        1 UNL1     -0.2772
     10 C         7.806033   6.07294   -4.239348 C.2        1 UNL1     0.1049
     11 C         6.964034   5.10017   -3.941054 C.2        1 UNL1     0.0801
     12 C         6.514183   7.678183   -2.821021 C.ar        1 UNL1     0.0753
     13 C         5.760247   6.549182   -2.36765 C.ar        1 UNL1     0.0305
     14 C         5.875256   5.243243   -3.012901 C.2        1 UNL1     0.0924
     15 N         7.088047   3.771309   -4.100041 N.pl3        1 UNL1     -0.3170
     16 C         5.821444   3.170012   -3.77691 C.3        1 UNL1     0.1275
     17 N         5.18988   4.124761   -2.793393 N.2        1 UNL1     -0.2557
     18 C         4.960005   3.22661   -5.034853 C.3        1 UNL1     0.0016
     19 C         5.708543   2.543117   -6.168043 C.3        1 UNL1     0.0026
     20 N         5.983831   1.165791   -5.783052 N.3        1 UNL1     -0.3018
     21 C         6.755806   1.007688   -4.54878 C.3        1 UNL1     0.0026
     22 C         5.983341   1.697559   -3.423049 C.3        1 UNL1     0.0016
     23 C         6.422381   0.346292   -6.89514 C.3        1 UNL1     0.0012
     24 C         5.260819   0.093983   -7.86924 C.3        1 UNL1     -0.0339
     25 C         5.345979   1.015889   -9.096796 C.3        1 UNL1     -0.0615
     26 C         5.22689   -1.370298   -8.271121 C.3        1 UNL1     -0.0615
     27 C         6.310807   8.945878   -2.280923 C.ar        1 UNL1     0.1347
     28 C         5.357732   9.214332   -1.314678 C.ar        1 UNL1     0.0342
     29 C         4.66139   8.078912   -0.848743 C.ar        1 UNL1     0.1435
     30 C         4.879805   6.796935   -1.354757 C.ar        1 UNL1     0.0774
     31 O         3.625958   8.191158   0.011656 O.3        1 UNL1     -0.4436
     32 C         2.905628   6.956904   -0.124782 C.3        1 UNL1     0.3143
     33 C         3.91716   5.965298   -0.663048 C.2        1 UNL1     0.2504
     34 C         4.911336   10.579919   -0.871958 C.3        1 UNL1     -0.0327
     35 O         2.554672   6.520475   1.194162 O.2        1 UNL1     -0.4528
     36 C         -0.687382   4.582009   0.820633 C.3        1 UNL1     0.0854
     37 C         -0.996385   3.320222   -0.073757 C.3        1 UNL1     0.0236
     38 C         -1.58928   2.058632   0.719093 C.3        1 UNL1     0.1131
     39 C         -0.85379   1.529972   2.015951 C.3        1 UNL1     0.0200
     40 C         0.807909   1.38753   2.046029 C.3        1 UNL1     0.0661
     41 C         1.760808   0.61964   0.871321 C.3        1 UNL1     0.0091
     42 C         3.463882   0.984952   0.295569 C.3        1 UNL1     0.0661
     43 C         7.457036   7.471436   -3.948205 C.2        1 UNL1     0.2131
     44 O         7.850403   8.369736   -4.670047 O.2        1 UNL1     -0.2851
     45 O         7.118046   9.982157   -2.745606 O.3        1 UNL1     -0.5056
     46 O         3.936262   4.761889   -0.531531 O.2        1 UNL1     -0.2836
     47 C         5.573942   1.33099   1.891099 C.3        1 UNL1     -0.0566
     48 O         3.915602   -0.425263   0.375328 O.3        1 UNL1     -0.3909
     49 C         0.918717   0.384615   -0.362835 C.3        1 UNL1     -0.0577
     50 O         1.408482   2.606783   2.433918 O.3        1 UNL1     -0.3910
     51 O         -0.80174   4.393109   2.212994 O.3        1 UNL1     -0.3753
     52 C         0.040575   3.160851   -1.233181 C.3        1 UNL1     -0.0564
     53 O         -2.196007   1.017888   -0.175926 O.3        1 UNL1     -0.4608
     54 C         -2.394557   -0.297139   0.154547 C.2        1 UNL1     0.3042
     55 O         -1.812872   -1.278884   -0.305517 O.2        1 UNL1     -0.2512
     56 C         -3.408211   -0.496728   1.245135 C.3        1 UNL1     0.0332
     57 C         -1.567539   2.198544   3.281553 C.3        1 UNL1     -0.0567
     58 C         1.822697   7.199223   -1.201848 C.3        1 UNL1     0.0210
     59 C         -1.112125   5.572068   2.954331 C.3        1 UNL1     0.0372
     60 C         0.638861   5.213381   0.580614 C.2        1 UNL1     -0.0208
     61 C         1.556829   5.65093   1.443534 C.2        1 UNL1     0.0882
     62 H         4.68996   2.742053   0.545071 H        1 UNL1     0.0365
     63 H         6.329056   3.620246   -0.298949 H        1 UNL1     0.0576
     64 H         8.332033   1.504417   -1.303005 H        1 UNL1     0.0615
     65 H         8.257713   4.621538   -1.492455 H        1 UNL1     0.0622
     66 H         -1.435489   5.326935   0.514906 H        1 UNL1     0.0645
     67 H         -1.866607   3.627544   -0.67942 H        1 UNL1     0.0362
     68 H         -2.534764   2.494014   1.076898 H        1 UNL1     0.0741
     69 H         -1.182114   0.518406   2.214307 H        1 UNL1     0.0359
     70 H         0.926848   0.728049   2.926936 H        1 UNL1     0.0600
     71 H         1.80916   -0.401132   1.298689 H        1 UNL1     0.0348
     72 H         3.363706   1.473674   1.275585 H        1 UNL1     0.0602
     73 H         0.749397   5.410092   -0.456851 H        1 UNL1     0.0628
     74 H         1.54689   5.441013   2.513616 H        1 UNL1     0.1022
     75 H         10.909597   2.268169   -3.528489 H        1 UNL1     0.0279
     76 H         10.773132   3.481778   -4.737552 H        1 UNL1     0.0279
     77 H         11.888428   3.661314   -3.323628 H        1 UNL1     0.0279
     78 H         9.023394   4.817967   -5.085212 H        1 UNL1     0.1553
     79 H         7.749928   3.344096   -4.7216 H        1 UNL1     0.1484
     80 H         4.000965   2.734045   -4.833884 H        1 UNL1     0.0317
     81 H         4.729655   4.262745   -5.305066 H        1 UNL1     0.0317
     82 H         6.636527   3.075955   -6.422685 H        1 UNL1     0.0428
     83 H         5.077287   2.596455   -7.05558 H        1 UNL1     0.0428
     84 H         6.880139   -0.034814   -4.23968 H        1 UNL1     0.0428
     85 H         7.784491   1.377545   -4.659812 H        1 UNL1     0.0428
     86 H         6.506341   1.448814   -2.518293 H        1 UNL1     0.0317
     87 H         5.005647   1.218207   -3.291009 H        1 UNL1     0.0317
     88 H         7.213864   0.889171   -7.428179 H        1 UNL1     0.0429
     89 H         6.859084   -0.598423   -6.54646 H        1 UNL1     0.0429
     90 H         4.312019   0.285248   -7.35406 H        1 UNL1     0.0308
     91 H         6.298021   0.89241   -9.621649 H        1 UNL1     0.0233
     92 H         4.525703   0.813569   -9.789489 H        1 UNL1     0.0233
     93 H         5.265554   2.07639   -8.829016 H        1 UNL1     0.0233
     94 H         4.566399   -1.510014   -9.133714 H        1 UNL1     0.0233
     95 H         6.228904   -1.70276   -8.55643 H        1 UNL1     0.0233
     96 H         4.865435   -2.000229   -7.453499 H        1 UNL1     0.0233
     97 H         4.116762   10.529337   -0.133498 H        1 UNL1     0.0280
     98 H         5.723816   11.148325   -0.400739 H        1 UNL1     0.0280
     99 H         4.539544   11.146515   -1.741346 H        1 UNL1     0.0280
     100 H         6.648431   10.744454   -3.035412 H        1 UNL1     0.2922
     101 H         4.712227   0.907543   2.406653 H        1 UNL1     0.0236
     102 H         6.038201   2.13423   2.462285 H        1 UNL1     0.0236
     103 H         6.322491   0.521152   1.885521 H        1 UNL1     0.0236
     104 H         4.335892   -0.551416   1.24849 H        1 UNL1     0.2098
     105 H         0.700541   1.282629   -0.935357 H        1 UNL1     0.0234
     106 H         1.285129   -0.403207   -1.020868 H        1 UNL1     0.0234
     107 H         0.0   -0.0   0.0 H        1 UNL1     0.0234
     108 H         1.257861   3.246958   1.711936 H        1 UNL1     0.2098
     109 H         1.069584   3.061944   -0.860261 H        1 UNL1     0.0234
     110 H         -0.188188   2.325227   -1.903362 H        1 UNL1     0.0234
     111 H         0.046898   4.03797   -1.893915 H        1 UNL1     0.0234
     112 H         -3.503304   -1.562452   1.474342 H        1 UNL1     0.0342
     113 H         -3.165491   0.075128   2.139512 H        1 UNL1     0.0342
     114 H         -4.381461   -0.143092   0.87786 H        1 UNL1     0.0342
     115 H         -2.639016   1.95848   3.320226 H        1 UNL1     0.0234
     116 H         -1.131753   1.910784   4.240372 H        1 UNL1     0.0234
     117 H         -1.59757   3.300888   3.238238 H        1 UNL1     0.0234
     118 H         0.921674   7.680533   -0.782915 H        1 UNL1     0.0309
     119 H         2.183976   7.791155   -2.048782 H        1 UNL1     0.0309
     120 H         1.436291   6.266353   -1.62676 H        1 UNL1     0.0309
     121 H         -0.276103   6.261845   2.841948 H        1 UNL1     0.0524
     122 H         -2.014547   6.079547   2.574675 H        1 UNL1     0.0524
     123 H         -1.259123   5.328931   4.002839 H        1 UNL1     0.0524
@<TRIPOS>BOND
     1     1     2    1
     2     1    42    1
     3     2     3    2
     4     3     4    1
     5     4     5    2
     6     5     7    1
     7     6    75    1
     8     6    76    1
     9     6    77    1
    10     7     9   am
    11     9    10    1
    12    10    11    2
    13    10    43    1
    14    11    14    1
    15    11    15    1
    16    12    13   ar
    17    12    27   ar
    18    12    43    1
    19    13    14    1
    20    13    30   ar
    21    14    17    2
    22    15    16    1
    23    16    17    1
    24    16    18    1
    25    16    22    1
    26    18    19    1
    27    19    20    1
    28    20    21    1
    29    21    22    1
    30    23    24    1
    31    23    88    1
    32    23    89    1
    33    24    25    1
    34    24    26    1
    35    24    90    1
    36    25    91    1
    37    25    92    1
    38    25    93    1
    39    26    94    1
    40    26    95    1
    41    26    96    1
    42    27    28   ar
    43    28    29   ar
    44    29    30   ar
    45    29    31    1
    46    30    33    1
    47    31    32    1
    48    32    33    1
    49    32    35    1
    50    34    97    1
    51    34    98    1
    52    34    99    1
    53    35    61    1
    54    36    37    1
    55    36    60    1
    56    37    38    1
    57    38    39    1
    58    39    40    1
    59    40    41    1
    60    41    42    1
    61    45   100    1
    62    47   101    1
    63    47   102    1
    64    47   103    1
    65    48   104    1
    66    49   105    1
    67    49   106    1
    68    49   107    1
    69    50   108    1
    70    51    59    1
    71    52   109    1
    72    52   110    1
    73    52   111    1
    74    53    54    1
    75    54    55    2
    76    54    56    1
    77    56   112    1
    78    56   113    1
    79    56   114    1
    80    57   115    1
    81    57   116    1
    82    57   117    1
    83    58   118    1
    84    58   119    1
    85    58   120    1
    86    59   121    1
    87    59   122    1
    88    59   123    1
    89    60    61    2
    90     1    47    1
    91     1    62    1
    92     2    63    1
    93     3    64    1
    94     4    65    1
    95     5     6    1
    96     7     8    2
    97     9    78    1
    98    15    79    1
    99    18    80    1
   100    18    81    1
   101    19    82    1
   102    19    83    1
   103    20    23    1
   104    21    84    1
   105    21    85    1
   106    22    86    1
   107    22    87    1
   108    27    45    1
   109    28    34    1
   110    32    58    1
   111    33    46    2
   112    36    51    1
   113    36    66    1
   114    37    52    1
   115    37    67    1
   116    38    53    1
   117    38    68    1
   118    42    48    1
   119    42    72    1
   120    43    44    2
   121    60    73    1
   122    61    74    1
   123    39    69    1
   124    39    57    1
   125    40    70    1
   126    40    50    1
   127    41    71    1
   128    41    49    1
