@<TRIPOS>MOLECULE
*****
 123 128 0 0 0
SMALL
GASTEIGER

@<TRIPOS>ATOM
     1 C         2.345416   -4.883016   0.554187 C.3        1 UNL1     0.0009
     2 C         3.120969   -6.29397   -0.364923 C.2        1 UNL1     -0.0787
     3 C         3.067777   -7.656302   -0.852024 C.2        1 UNL1     -0.0649
     4 C         4.176038   -8.445006   -1.860022 C.2        1 UNL1     -0.0542
     5 C         4.36888   -9.532777   -2.746952 C.2        1 UNL1     0.0115
     6 C         3.735038   -10.847072   -3.280052 C.3        1 UNL1     -0.0348
     7 C         5.615088   -9.499016   -3.758295 C.2        1 UNL1     0.2441
     8 O         6.641593   -10.137539   -3.570939 O.2        1 UNL1     -0.2702
     9 N         5.349702   -8.895901   -5.000057 N.am        1 UNL1     -0.2772
     10 C         5.576237   -7.54032   -4.933695 C.2        1 UNL1     0.1049
     11 C         4.592349   -6.809167   -4.442164 C.2        1 UNL1     0.0801
     12 C         7.258715   -5.844383   -4.191805 C.ar        1 UNL1     0.0753
     13 C         6.18609   -5.199016   -3.497843 C.ar        1 UNL1     0.0305
     14 C         4.79377   -5.58845   -3.709596 C.2        1 UNL1     0.0924
     15 N         3.315451   -7.140337   -4.184511 N.pl3        1 UNL1     -0.3170
     16 C         2.614205   -5.937512   -3.82158 C.3        1 UNL1     0.1275
     17 N         3.678027   -5.042568   -3.234143 N.2        1 UNL1     -0.2557
     18 C         2.16509   -5.267683   -5.116696 C.3        1 UNL1     0.0016
     19 C         1.336298   -6.260725   -5.915797 C.3        1 UNL1     0.0026
     20 N         0.191905   -6.668225   -5.11247 N.3        1 UNL1     -0.3018
     21 C         0.522804   -7.268112   -3.818248 C.3        1 UNL1     0.0026
     22 C         1.351315   -6.251816   -3.030461 C.3        1 UNL1     0.0016
     23 C         -0.814132   -7.373703   -5.881127 C.3        1 UNL1     0.0012
     24 C         -0.930068   -8.831067   -5.407411 C.3        1 UNL1     -0.0339
     25 C         -0.088797   -9.080613   -4.144855 C.3        1 UNL1     -0.0615
     26 C         -2.388723   -9.192784   -5.18772 C.3        1 UNL1     -0.0615
     27 C         8.570034   -5.388973   -4.077081 C.ar        1 UNL1     0.1347
     28 C         8.92439   -4.278048   -3.332549 C.ar        1 UNL1     0.0342
     29 C         7.859375   -3.688177   -2.619136 C.ar        1 UNL1     0.1435
     30 C         6.546723   -4.155396   -2.695773 C.ar        1 UNL1     0.0774
     31 O         8.022236   -2.533837   -1.936507 O.3        1 UNL1     -0.4436
     32 C         6.691863   -2.021449   -1.767867 C.3        1 UNL1     0.3143
     33 C         5.784374   -3.229364   -1.884568 C.2        1 UNL1     0.2504
     34 C         10.25809   -3.584932   -3.36315 C.3        1 UNL1     -0.0327
     35 O         6.585346   -1.548329   -0.419511 O.2        1 UNL1     -0.4528
     36 C         4.078901   1.300775   -0.511321 C.3        1 UNL1     0.0854
     37 C         2.583994   1.296829   -1.014073 C.3        1 UNL1     0.0236
     38 C         1.509209   1.814915   0.057454 C.3        1 UNL1     0.1131
     39 C         1.501283   1.207746   1.518122 C.3        1 UNL1     0.0200
     40 C         1.668567   -0.435498   1.750942 C.3        1 UNL1     0.0661
     41 C         0.784614   -1.646565   0.957498 C.3        1 UNL1     0.0091
     42 C         1.269761   -3.346581   0.467619 C.3        1 UNL1     0.0661
     43 C         6.91597   -6.959895   -5.10855 C.2        1 UNL1     0.2131
     44 O         7.632351   -7.323329   -6.023674 O.2        1 UNL1     -0.2851
     45 O         9.561385   -6.101213   -4.748926 O.3        1 UNL1     -0.5056
     46 O         4.688319   -3.398149   -1.39874 O.2        1 UNL1     -0.2836
     47 C         2.413477   -5.134009   2.084661 C.3        1 UNL1     -0.0566
     48 O         0.040433   -3.975642   1.008128 O.3        1 UNL1     -0.3909
     49 C         0.070238   -1.033224   -0.226129 C.3        1 UNL1     -0.0577
     50 O         3.033688   -0.796341   1.813865 O.3        1 UNL1     -0.3910
     51 O         4.268287   1.58755   0.855912 O.3        1 UNL1     -0.3753
     52 C         2.293608   0.091139   -1.966404 C.3        1 UNL1     -0.0564
     53 O         0.170236   2.133546   -0.540837 O.3        1 UNL1     -0.4608
     54 C         -0.697006   1.22021   -1.080871 C.2        1 UNL1     0.3042
     55 O         -0.416234   0.241043   -1.770971 O.2        1 UNL1     -0.2512
     56 C         -2.132458   1.461103   -0.709169 C.3        1 UNL1     0.0332
     57 C         2.35902   2.183761   2.450783 C.3        1 UNL1     -0.0567
     58 C         6.429363   -1.08243   -2.968228 C.3        1 UNL1     0.0210
     59 C         5.443501   2.340071   1.153319 C.3        1 UNL1     0.0372
     60 C         4.842224   0.055777   -0.798508 C.2        1 UNL1     -0.0208
     61 C         5.657762   -0.6571   -0.020403 C.2        1 UNL1     0.0882
     62 H         3.214514   -4.26452   0.299543 H        1 UNL1     0.0365
     63 H         4.097808   -5.868594   -0.60432 H        1 UNL1     0.0576
     64 H         2.174281   -8.272902   -0.73129 H        1 UNL1     0.0615
     65 H         5.051071   -7.789514   -1.848552 H        1 UNL1     0.0622
     66 H         4.564889   2.093987   -1.096707 H        1 UNL1     0.0645
     67 H         2.551745   2.104797   -1.765543 H        1 UNL1     0.0362
     68 H         1.852984   2.853891   0.175221 H        1 UNL1     0.0741
     69 H         0.543618   1.415872   1.976345 H        1 UNL1     0.0359
     70 H         1.312404   -0.517295   2.795699 H        1 UNL1     0.0600
     71 H         -0.051438   -1.775563   1.672575 H        1 UNL1     0.0348
     72 H         1.986477   -3.038101   1.242522 H        1 UNL1     0.0602
     73 H         4.75841   -0.174847   -1.831483 H        1 UNL1     0.0628
     74 H         5.755958   -0.522148   1.057272 H        1 UNL1     0.1022
     75 H         3.575169   -11.571789   -2.445629 H        1 UNL1     0.0279
     76 H         2.740607   -10.765284   -3.713049 H        1 UNL1     0.0279
     77 H         4.415991   -11.413739   -3.931889 H        1 UNL1     0.0279
     78 H         4.370764   -9.031315   -5.243823 H        1 UNL1     0.1553
     79 H         2.855837   -7.93852   -4.582748 H        1 UNL1     0.1484
     80 H         1.586757   -4.36849   -4.872258 H        1 UNL1     0.0317
     81 H         3.027295   -4.935544   -5.70486 H        1 UNL1     0.0317
     82 H         1.932213   -7.131601   -6.226236 H        1 UNL1     0.0428
     83 H         1.027938   -5.763257   -6.835846 H        1 UNL1     0.0428
     84 H         -0.353296   -7.491683   -3.201582 H        1 UNL1     0.0428
     85 H         1.022648   -8.239759   -3.933897 H        1 UNL1     0.0428
     86 H         1.460887   -6.668219   -2.04629 H        1 UNL1     0.0317
     87 H         0.76296   -5.342462   -2.857228 H        1 UNL1     0.0317
     88 H         -1.779079   -6.87576   -5.719181 H        1 UNL1     0.0429
     89 H         -0.602438   -7.322667   -6.956931 H        1 UNL1     0.0429
     90 H         -0.572863   -9.496593   -6.202202 H        1 UNL1     0.0308
     91 H         0.567375   -8.231871   -3.929967 H        1 UNL1     0.0233
     92 H         -0.732785   -9.263648   -3.281497 H        1 UNL1     0.0233
     93 H         0.554309   -9.963966   -4.239382 H        1 UNL1     0.0233
     94 H         -2.624594   -10.135042   -5.694031 H        1 UNL1     0.0233
     95 H         -2.583968   -9.325774   -4.11994 H        1 UNL1     0.0233
     96 H         -3.054959   -8.416518   -5.574386 H        1 UNL1     0.0233
     97 H         10.155454   -2.503879   -3.367767 H        1 UNL1     0.0280
     98 H         10.869515   -3.825008   -2.483503 H        1 UNL1     0.0280
     99 H         10.808518   -3.883665   -4.270279 H        1 UNL1     0.0280
     100 H         10.048794   -5.59687   -5.376376 H        1 UNL1     0.2922
     101 H         3.431942   -5.397633   2.36907 H        1 UNL1     0.0236
     102 H         1.688634   -5.869972   2.430991 H        1 UNL1     0.0236
     103 H         2.187956   -4.223211   2.664127 H        1 UNL1     0.0236
     104 H         -0.617312   -3.266355   1.146887 H        1 UNL1     0.2098
     105 H         0.599503   -1.131887   -1.170563 H        1 UNL1     0.0234
     106 H         -0.968596   -1.342285   -0.341168 H        1 UNL1     0.0234
     107 H         -0.0   0.0   0.0 H        1 UNL1     0.0234
     108 H         3.131727   -1.433883   2.547143 H        1 UNL1     0.2098
     109 H         1.934053   -0.79256   -1.42096 H        1 UNL1     0.0234
     110 H         1.590855   0.336833   -2.769845 H        1 UNL1     0.0234
     111 H         3.199389   -0.23418   -2.495246 H        1 UNL1     0.0234
     112 H         -2.203145   2.319705   -0.03452 H        1 UNL1     0.0342
     113 H         -2.764649   1.599311   -1.584998 H        1 UNL1     0.0342
     114 H         -2.500029   0.577523   -0.169408 H        1 UNL1     0.0342
     115 H         2.064703   3.234496   2.322251 H        1 UNL1     0.0234
     116 H         2.292598   1.952063   3.515656 H        1 UNL1     0.0234
     117 H         3.427414   2.226781   2.177609 H        1 UNL1     0.0234
     118 H         6.964777   -0.122052   -2.868167 H        1 UNL1     0.0309
     119 H         6.683539   -1.535487   -3.931731 H        1 UNL1     0.0309
     120 H         5.379249   -0.779531   -3.043184 H        1 UNL1     0.0309
     121 H         5.239504   2.931064   2.04577 H        1 UNL1     0.0524
     122 H         6.309419   1.693861   1.373857 H        1 UNL1     0.0524
     123 H         5.693006   2.992013   0.320966 H        1 UNL1     0.0524
@<TRIPOS>BOND
     1     1     2    1
     2     1    42    1
     3     2     3    2
     4     3     4    1
     5     4     5    2
     6     5     7    1
     7     6    75    1
     8     6    76    1
     9     6    77    1
    10     7     9   am
    11     9    10    1
    12    10    11    2
    13    10    43    1
    14    11    14    1
    15    11    15    1
    16    12    13   ar
    17    12    27   ar
    18    12    43    1
    19    13    14    1
    20    13    30   ar
    21    14    17    2
    22    15    16    1
    23    16    17    1
    24    16    18    1
    25    16    22    1
    26    18    19    1
    27    19    20    1
    28    20    21    1
    29    21    22    1
    30    23    24    1
    31    23    88    1
    32    23    89    1
    33    24    25    1
    34    24    26    1
    35    24    90    1
    36    25    91    1
    37    25    92    1
    38    25    93    1
    39    26    94    1
    40    26    95    1
    41    26    96    1
    42    27    28   ar
    43    28    29   ar
    44    29    30   ar
    45    29    31    1
    46    30    33    1
    47    31    32    1
    48    32    33    1
    49    32    35    1
    50    34    97    1
    51    34    98    1
    52    34    99    1
    53    35    61    1
    54    36    37    1
    55    36    60    1
    56    37    38    1
    57    38    39    1
    58    39    40    1
    59    40    41    1
    60    41    42    1
    61    45   100    1
    62    47   101    1
    63    47   102    1
    64    47   103    1
    65    48   104    1
    66    49   105    1
    67    49   106    1
    68    49   107    1
    69    50   108    1
    70    51    59    1
    71    52   109    1
    72    52   110    1
    73    52   111    1
    74    53    54    1
    75    54    55    2
    76    54    56    1
    77    56   112    1
    78    56   113    1
    79    56   114    1
    80    57   115    1
    81    57   116    1
    82    57   117    1
    83    58   118    1
    84    58   119    1
    85    58   120    1
    86    59   121    1
    87    59   122    1
    88    59   123    1
    89    60    61    2
    90     1    47    1
    91     1    62    1
    92     2    63    1
    93     3    64    1
    94     4    65    1
    95     5     6    1
    96     7     8    2
    97     9    78    1
    98    15    79    1
    99    18    80    1
   100    18    81    1
   101    19    82    1
   102    19    83    1
   103    20    23    1
   104    21    84    1
   105    21    85    1
   106    22    86    1
   107    22    87    1
   108    27    45    1
   109    28    34    1
   110    32    58    1
   111    33    46    2
   112    36    51    1
   113    36    66    1
   114    37    52    1
   115    37    67    1
   116    38    53    1
   117    38    68    1
   118    42    48    1
   119    42    72    1
   120    43    44    2
   121    60    73    1
   122    61    74    1
   123    39    69    1
   124    39    57    1
   125    40    70    1
   126    40    50    1
   127    41    71    1
   128    41    49    1
