@<TRIPOS>MOLECULE
*****
 123 128 0 0 0
SMALL
GASTEIGER

@<TRIPOS>ATOM
     1 C         5.166812   1.748872   0.495062 C.3        1 UNL1     0.0009
     2 C         6.603735   2.555929   -0.354025 C.2        1 UNL1     -0.0787
     3 C         7.885963   2.45852   -1.019194 C.2        1 UNL1     -0.0649
     4 C         8.763501   3.694396   -1.773445 C.2        1 UNL1     -0.0542
     5 C         9.783922   3.98796   -2.711336 C.2        1 UNL1     0.0115
     6 C         10.912688   3.363406   -3.576866 C.3        1 UNL1     -0.0348
     7 C         9.879222   5.471682   -3.316709 C.2        1 UNL1     0.2441
     8 O         10.702734   6.293239   -2.938029 O.2        1 UNL1     -0.2702
     9 N         9.129529   5.679336   -4.487602 N.am        1 UNL1     -0.2772
     10 C         7.846572   6.065496   -4.174195 C.2        1 UNL1     0.1049
     11 C         7.000864   5.093678   -3.883388 C.2        1 UNL1     0.0801
     12 C         6.547123   7.670821   -2.76292 C.ar        1 UNL1     0.0753
     13 C         5.788101   6.542406   -2.316629 C.ar        1 UNL1     0.0305
     14 C         5.905646   5.237204   -2.962913 C.2        1 UNL1     0.0924
     15 N         7.123864   3.764845   -4.043389 N.pl3        1 UNL1     -0.3170
     16 C         5.853986   3.165158   -3.730275 C.3        1 UNL1     0.1275
     17 N         5.216888   4.119531   -2.749969 N.2        1 UNL1     -0.2557
     18 C         5.001745   3.224959   -4.994321 C.3        1 UNL1     0.0016
     19 C         5.757336   2.541864   -6.123061 C.3        1 UNL1     0.0026
     20 N         6.027601   1.163541   -5.738077 N.3        1 UNL1     -0.3018
     21 C         6.790385   1.002414   -4.498493 C.3        1 UNL1     0.0026
     22 C         6.010932   1.691937   -3.377376 C.3        1 UNL1     0.0016
     23 C         6.472838   0.344916   -6.848148 C.3        1 UNL1     0.0012
     24 C         5.316545   0.091346   -7.828171 C.3        1 UNL1     -0.0339
     25 C         5.336974   1.094077   -8.993576 C.3        1 UNL1     -0.0615
     26 C         5.359645   -1.343451   -8.324435 C.3        1 UNL1     -0.0615
     27 C         6.34191   8.938074   -2.222479 C.ar        1 UNL1     0.1347
     28 C         5.38232   9.206704   -1.262753 C.ar        1 UNL1     0.0342
     29 C         4.68079   8.071759   -0.803493 C.ar        1 UNL1     0.1435
     30 C         4.900771   6.790151   -1.309762 C.ar        1 UNL1     0.0774
     31 O         3.639355   8.184468   0.049571 O.3        1 UNL1     -0.4436
     32 C         2.918026   6.951589   -0.09384 C.3        1 UNL1     0.3143
     33 C         3.931808   5.9591   -0.626218 C.2        1 UNL1     0.2504
     34 C         4.934957   10.572385   -0.821301 C.3        1 UNL1     -0.0327
     35 O         2.556848   6.51385   1.221906 O.2        1 UNL1     -0.4528
     36 C         -0.685567   4.581219   0.822193 C.3        1 UNL1     0.0854
     37 C         -0.990152   3.321217   -0.07622 C.3        1 UNL1     0.0236
     38 C         -1.590804   2.059467   0.710512 C.3        1 UNL1     0.1131
     39 C         -0.865556   1.527754   2.011883 C.3        1 UNL1     0.0200
     40 C         0.795649   1.382555   2.05375 C.3        1 UNL1     0.0661
     41 C         1.755757   0.614787   0.884846 C.3        1 UNL1     0.0091
     42 C         3.463535   0.978137   0.32193 C.3        1 UNL1     0.0661
     43 C         7.497753   7.464143   -3.883565 C.2        1 UNL1     0.2131
     44 O         7.89778   8.36283   -4.601254 O.2        1 UNL1     -0.2851
     45 O         7.154164   9.973695   -2.67983 O.3        1 UNL1     -0.5056
     46 O         3.948006   4.755475   -0.4963 O.2        1 UNL1     -0.2836
     47 C         5.562578   1.318449   1.933146 C.3        1 UNL1     -0.0566
     48 O         3.912377   -0.432925   0.402916 O.3        1 UNL1     -0.3909
     49 C         0.922219   0.382901   -0.355693 C.3        1 UNL1     -0.0577
     50 O         1.395384   2.600269   2.447719 O.3        1 UNL1     -0.3910
     51 O         -0.810282   4.390517   2.213419 O.3        1 UNL1     -0.3753
     52 C         0.054893   3.161808   -1.228357 C.3        1 UNL1     -0.0564
     53 O         -2.192741   1.020994   -0.190361 O.3        1 UNL1     -0.4608
     54 C         -2.414914   -0.289287   0.143905 C.2        1 UNL1     0.3042
     55 O         -1.842371   -1.281831   -0.3043 O.2        1 UNL1     -0.2512
     56 C         -3.444674   -0.468393   1.2229 C.3        1 UNL1     0.0332
     57 C         -1.587339   2.195682   3.273261 C.3        1 UNL1     -0.0567
     58 C         1.843296   7.197215   -1.178346 C.3        1 UNL1     0.0210
     59 C         -1.155017   5.562552   2.950548 C.3        1 UNL1     0.0372
     60 C         0.643398   5.210765   0.592663 C.2        1 UNL1     -0.0208
     61 C         1.55582   5.645581   1.462817 C.2        1 UNL1     0.0882
     62 H         4.69063   2.732876   0.582805 H        1 UNL1     0.0365
     63 H         6.337202   3.609594   -0.248096 H        1 UNL1     0.0576
     64 H         8.343938   1.491931   -1.240713 H        1 UNL1     0.0615
     65 H         8.276049   4.609437   -1.426206 H        1 UNL1     0.0622
     66 H         -1.430236   5.327802   0.512147 H        1 UNL1     0.0645
     67 H         -1.855478   3.630825   -0.687705 H        1 UNL1     0.0362
     68 H         -2.538139   2.495881   1.062109 H        1 UNL1     0.0741
     69 H         -1.196947   0.516444   2.206407 H        1 UNL1     0.0359
     70 H         0.907152   0.721622   2.934542 H        1 UNL1     0.0600
     71 H         1.799364   -0.406672   1.311082 H        1 UNL1     0.0348
     72 H         3.357079   1.465622   1.3019 H        1 UNL1     0.0602
     73 H         0.761741   5.408777   -0.443693 H        1 UNL1     0.0628
     74 H         1.537813   5.434153   2.532495 H        1 UNL1     0.1022
     75 H         10.957342   2.258028   -3.424613 H        1 UNL1     0.0279
     76 H         10.799548   3.446935   -4.655426 H        1 UNL1     0.0279
     77 H         11.91754   3.668101   -3.249553 H        1 UNL1     0.0279
     78 H         9.06797   4.809746   -5.013055 H        1 UNL1     0.1553
     79 H         7.789521   3.337439   -4.660768 H        1 UNL1     0.1484
     80 H         4.040481   2.733675   -4.800989 H        1 UNL1     0.0317
     81 H         4.775035   4.261854   -5.264697 H        1 UNL1     0.0317
     82 H         6.687998   3.073547   -6.37023 H        1 UNL1     0.0428
     83 H         5.132593   2.5975   -7.015053 H        1 UNL1     0.0428
     84 H         6.91079   -0.04073   -4.190005 H        1 UNL1     0.0428
     85 H         7.820445   1.370748   -4.601564 H        1 UNL1     0.0428
     86 H         6.526982   1.441046   -2.469227 H        1 UNL1     0.0317
     87 H         5.031535   1.213996   -3.253087 H        1 UNL1     0.0317
     88 H         7.266292   0.888974   -7.37704 H        1 UNL1     0.0429
     89 H         6.909013   -0.59932   -6.497513 H        1 UNL1     0.0429
     90 H         4.364253   0.195297   -7.29474 H        1 UNL1     0.0308
     91 H         6.28511   1.05191   -9.537969 H        1 UNL1     0.0233
     92 H         4.516136   0.897058   -9.68713 H        1 UNL1     0.0233
     93 H         5.209923   2.129713   -8.655711 H        1 UNL1     0.0233
     94 H         4.662364   -1.475625   -9.1588 H        1 UNL1     0.0233
     95 H         6.364177   -1.584723   -8.683135 H        1 UNL1     0.0233
     96 H         5.088839   -2.047777   -7.532881 H        1 UNL1     0.0233
     97 H         4.14128   10.521909   -0.08187 H        1 UNL1     0.0280
     98 H         5.74736   11.142279   -0.35175 H        1 UNL1     0.0280
     99 H         4.561563   11.137448   -1.691001 H        1 UNL1     0.0280
     100 H         6.687114   10.724167   -3.002752 H        1 UNL1     0.2922
     101 H         4.699624   0.884262   2.437574 H        1 UNL1     0.0236
     102 H         6.012906   2.123487   2.512889 H        1 UNL1     0.0236
     103 H         6.319007   0.515949   1.931839 H        1 UNL1     0.0236
     104 H         4.331527   -0.559434   1.276575 H        1 UNL1     0.2098
     105 H         0.710274   1.281978   -0.928887 H        1 UNL1     0.0234
     106 H         1.291675   -0.405088   -1.011821 H        1 UNL1     0.0234
     107 H         0.0   -0.0   0.0 H        1 UNL1     0.0234
     108 H         1.194619   3.259694   1.755894 H        1 UNL1     0.2098
     109 H         1.079574   3.048296   -0.847759 H        1 UNL1     0.0234
     110 H         -0.177044   2.335133   -1.908471 H        1 UNL1     0.0234
     111 H         0.076194   4.045084   -1.88052 H        1 UNL1     0.0234
     112 H         -3.569895   -1.532529   1.44489 H        1 UNL1     0.0342
     113 H         -3.196403   0.091928   2.123036 H        1 UNL1     0.0342
     114 H         -4.404513   -0.087398   0.847778 H        1 UNL1     0.0342
     115 H         -2.651465   1.92698   3.324488 H        1 UNL1     0.0234
     116 H         -1.13619   1.934569   4.232601 H        1 UNL1     0.0234
     117 H         -1.648027   3.296006   3.2137 H        1 UNL1     0.0234
     118 H         0.941919   7.683629   -0.766125 H        1 UNL1     0.0309
     119 H         2.21293   7.785873   -2.023955 H        1 UNL1     0.0309
     120 H         1.455135   6.265465   -1.604117 H        1 UNL1     0.0309
     121 H         -0.352375   6.286557   2.812928 H        1 UNL1     0.0524
     122 H         -2.086767   6.026701   2.586619 H        1 UNL1     0.0524
     123 H         -1.26811   5.324094   4.004323 H        1 UNL1     0.0524
@<TRIPOS>BOND
     1     1     2    1
     2     1    42    1
     3     2     3    2
     4     3     4    1
     5     4     5    2
     6     5     7    1
     7     6    75    1
     8     6    76    1
     9     6    77    1
    10     7     9   am
    11     9    10    1
    12    10    11    2
    13    10    43    1
    14    11    14    1
    15    11    15    1
    16    12    13   ar
    17    12    27   ar
    18    12    43    1
    19    13    14    1
    20    13    30   ar
    21    14    17    2
    22    15    16    1
    23    16    17    1
    24    16    18    1
    25    16    22    1
    26    18    19    1
    27    19    20    1
    28    20    21    1
    29    21    22    1
    30    23    24    1
    31    23    88    1
    32    23    89    1
    33    24    25    1
    34    24    26    1
    35    24    90    1
    36    25    91    1
    37    25    92    1
    38    25    93    1
    39    26    94    1
    40    26    95    1
    41    26    96    1
    42    27    28   ar
    43    28    29   ar
    44    29    30   ar
    45    29    31    1
    46    30    33    1
    47    31    32    1
    48    32    33    1
    49    32    35    1
    50    34    97    1
    51    34    98    1
    52    34    99    1
    53    35    61    1
    54    36    37    1
    55    36    60    1
    56    37    38    1
    57    38    39    1
    58    39    40    1
    59    40    41    1
    60    41    42    1
    61    45   100    1
    62    47   101    1
    63    47   102    1
    64    47   103    1
    65    48   104    1
    66    49   105    1
    67    49   106    1
    68    49   107    1
    69    50   108    1
    70    51    59    1
    71    52   109    1
    72    52   110    1
    73    52   111    1
    74    53    54    1
    75    54    55    2
    76    54    56    1
    77    56   112    1
    78    56   113    1
    79    56   114    1
    80    57   115    1
    81    57   116    1
    82    57   117    1
    83    58   118    1
    84    58   119    1
    85    58   120    1
    86    59   121    1
    87    59   122    1
    88    59   123    1
    89    60    61    2
    90     1    47    1
    91     1    62    1
    92     2    63    1
    93     3    64    1
    94     4    65    1
    95     5     6    1
    96     7     8    2
    97     9    78    1
    98    15    79    1
    99    18    80    1
   100    18    81    1
   101    19    82    1
   102    19    83    1
   103    20    23    1
   104    21    84    1
   105    21    85    1
   106    22    86    1
   107    22    87    1
   108    27    45    1
   109    28    34    1
   110    32    58    1
   111    33    46    2
   112    36    51    1
   113    36    66    1
   114    37    52    1
   115    37    67    1
   116    38    53    1
   117    38    68    1
   118    42    48    1
   119    42    72    1
   120    43    44    2
   121    60    73    1
   122    61    74    1
   123    39    69    1
   124    39    57    1
   125    40    70    1
   126    40    50    1
   127    41    71    1
   128    41    49    1
