@<TRIPOS>MOLECULE
*****
 123 128 0 0 0
SMALL
GASTEIGER

@<TRIPOS>ATOM
     1 C         -0.774612   2.178653   3.55309 C.3        1 UNL1     0.0009
     2 C         -2.42006   2.727197   4.207793 C.2        1 UNL1     -0.0787
     3 C         -3.391226   3.774006   4.446694 C.2        1 UNL1     -0.0649
     4 C         -4.961188   3.616561   5.060526 C.2        1 UNL1     -0.0542
     5 C         -6.233542   4.230602   5.166096 C.2        1 UNL1     0.0115
     6 C         -7.015556   5.550967   4.924407 C.3        1 UNL1     -0.0348
     7 C         -7.501613   3.327905   5.558681 C.2        1 UNL1     0.2441
     8 O         -7.986147   3.313692   6.681868 O.2        1 UNL1     -0.2702
     9 N         -8.177984   2.755923   4.467118 N.am        1 UNL1     -0.2772
     10 C         -7.620483   1.541293   4.139719 C.2        1 UNL1     0.1049
     11 C         -6.548031   1.581652   3.370018 C.2        1 UNL1     0.0801
     12 C         -6.874301   -0.630593   5.131413 C.ar        1 UNL1     0.0753
     13 C         -5.639217   -0.434187   4.435281 C.ar        1 UNL1     0.0305
     14 C         -5.486879   0.613155   3.42785 C.2        1 UNL1     0.0924
     15 N         -6.022264   2.604246   2.674031 N.pl3        1 UNL1     -0.3170
     16 C         -4.954219   2.081353   1.864021 C.3        1 UNL1     0.1275
     17 N         -4.460526   0.874019   2.623189 N.2        1 UNL1     -0.2557
     18 C         -5.580772   1.546923   0.579685 C.3        1 UNL1     0.0016
     19 C         -6.375915   2.66505   -0.075396 C.3        1 UNL1     0.0026
     20 N         -5.477416   3.776867   -0.353945 N.3        1 UNL1     -0.3018
     21 C         -4.779448   4.319659   0.813354 C.3        1 UNL1     0.0026
     22 C         -3.98359   3.180709   1.453116 C.3        1 UNL1     0.0016
     23 C         -6.060531   4.76492   -1.239593 C.3        1 UNL1     0.0012
     24 C         -6.867728   5.797701   -0.437374 C.3        1 UNL1     -0.0339
     25 C         -8.093345   6.288651   -1.225338 C.3        1 UNL1     -0.0615
     26 C         -7.264539   5.2169   0.908729 C.3        1 UNL1     -0.0615
     27 C         -7.049935   -1.704625   6.000738 C.ar        1 UNL1     0.1347
     28 C         -6.08051   -2.666263   6.223267 C.ar        1 UNL1     0.0342
     29 C         -4.855867   -2.425385   5.564943 C.ar        1 UNL1     0.1435
     30 C         -4.653239   -1.334008   4.719332 C.ar        1 UNL1     0.0774
     31 O         -3.850973   -3.327815   5.593505 O.3        1 UNL1     -0.4436
     32 C         -3.017191   -2.977543   4.478611 C.3        1 UNL1     0.3143
     33 C         -3.31059   -1.515657   4.208389 C.2        1 UNL1     0.2504
     34 C         -6.282436   -3.972591   6.93939 C.3        1 UNL1     -0.0327
     35 O         -1.65711   -3.054881   4.922964 O.2        1 UNL1     -0.4528
     36 C         0.384228   -4.001158   1.865908 C.3        1 UNL1     0.0854
     37 C         0.497456   -3.263925   0.476236 C.3        1 UNL1     0.0236
     38 C         1.991811   -2.893381   0.02752 C.3        1 UNL1     0.1131
     39 C         2.945327   -2.126679   1.030139 C.3        1 UNL1     0.0200
     40 C         2.372154   -0.840961   1.925036 C.3        1 UNL1     0.0661
     41 C         1.507559   0.485882   1.317112 C.3        1 UNL1     0.0091
     42 C         0.197248   1.508926   2.092914 C.3        1 UNL1     0.0661
     43 C         -7.992709   0.296646   4.82867 C.2        1 UNL1     0.2131
     44 O         -9.163228   0.027395   5.028985 O.2        1 UNL1     -0.2851
     45 O         -8.266507   -1.797677   6.67359 O.3        1 UNL1     -0.5056
     46 O         -2.590033   -0.683008   3.705052 O.2        1 UNL1     -0.2836
     47 C         0.362975   2.626751   4.509692 C.3        1 UNL1     -0.0566
     48 O         0.812628   2.799367   1.698982 O.3        1 UNL1     -0.3909
     49 C         1.043613   0.164554   -0.086098 C.3        1 UNL1     -0.0577
     50 O         1.783306   -1.290966   3.128563 O.3        1 UNL1     -0.3910
     51 O         1.574507   -4.087205   2.616416 O.3        1 UNL1     -0.3753
     52 C         -0.707899   -2.298906   0.229644 C.3        1 UNL1     -0.0564
     53 O         2.109026   -2.522095   -1.42187 O.3        1 UNL1     -0.4608
     54 C         2.93062   -1.549977   -1.929709 C.2        1 UNL1     0.3042
     55 O         3.825839   -1.688677   -2.762285 O.2        1 UNL1     -0.2512
     56 C         2.620451   -0.172342   -1.417234 C.3        1 UNL1     0.0332
     57 C         3.833654   -3.222385   1.784114 C.3        1 UNL1     -0.0567
     58 C         -3.515761   -3.816465   3.278958 C.3        1 UNL1     0.0210
     59 C         2.151146   -5.390862   2.678321 C.3        1 UNL1     0.0372
     60 C         -0.661208   -3.464372   2.77919 C.2        1 UNL1     -0.0208
     61 C         -0.612522   -3.192752   4.084026 C.2        1 UNL1     0.0882
     62 H         -1.029161   1.14861   3.830447 H        1 UNL1     0.0365
     63 H         -2.783369   1.797323   4.650296 H        1 UNL1     0.0576
     64 H         -3.238277   4.791347   4.079634 H        1 UNL1     0.0615
     65 H         -4.981153   2.602164   5.46806 H        1 UNL1     0.0622
     66 H         0.066774   -5.022237   1.611614 H        1 UNL1     0.0645
     67 H         0.232996   -4.041022   -0.26183 H        1 UNL1     0.0362
     68 H         2.414055   -3.906089   -0.059963 H        1 UNL1     0.0741
     69 H         3.755847   -1.681923   0.468306 H        1 UNL1     0.0359
     70 H         3.330519   -0.385212   2.239505 H        1 UNL1     0.0600
     71 H         2.342892   1.184639   1.114839 H        1 UNL1     0.0348
     72 H         0.717756   1.004612   2.91999 H        1 UNL1     0.0602
     73 H         -1.587589   -3.42079   2.262308 H        1 UNL1     0.0628
     74 H         0.304676   -3.15831   4.672923 H        1 UNL1     0.1022
     75 H         -6.778307   6.298267   5.719574 H        1 UNL1     0.0279
     76 H         -6.778489   6.095348   4.013079 H        1 UNL1     0.0279
     77 H         -8.101135   5.432327   5.055341 H        1 UNL1     0.0279
     78 H         -8.090067   3.362373   3.654366 H        1 UNL1     0.1553
     79 H         -6.532404   3.433694   2.431736 H        1 UNL1     0.1484
     80 H         -4.785381   1.180992   -0.08078 H        1 UNL1     0.0317
     81 H         -6.232744   0.691991   0.788671 H        1 UNL1     0.0317
     82 H         -7.220142   2.986097   0.552395 H        1 UNL1     0.0428
     83 H         -6.815522   2.261911   -0.988235 H        1 UNL1     0.0428
     84 H         -4.052187   5.099296   0.56623 H        1 UNL1     0.0428
     85 H         -5.471219   4.811579   1.511053 H        1 UNL1     0.0428
     86 H         -3.385168   3.639694   2.218107 H        1 UNL1     0.0317
     87 H         -3.239337   2.798953   0.743577 H        1 UNL1     0.0317
     88 H         -5.243348   5.284969   -1.756366 H        1 UNL1     0.0429
     89 H         -6.680044   4.291661   -2.012253 H        1 UNL1     0.0429
     90 H         -6.227564   6.65958   -0.214739 H        1 UNL1     0.0308
     91 H         -8.636232   5.45324   -1.677516 H        1 UNL1     0.0233
     92 H         -8.771401   6.847614   -0.576178 H        1 UNL1     0.0233
     93 H         -7.820322   6.96927   -2.040845 H        1 UNL1     0.0233
     94 H         -8.130075   5.753997   1.311481 H        1 UNL1     0.0233
     95 H         -7.543401   4.165638   0.794512 H        1 UNL1     0.0233
     96 H         -6.446573   5.288651   1.631053 H        1 UNL1     0.0233
     97 H         -6.431954   -3.833699   8.005965 H        1 UNL1     0.0280
     98 H         -7.169714   -4.509299   6.578918 H        1 UNL1     0.0280
     99 H         -5.397091   -4.613249   6.795102 H        1 UNL1     0.0280
     100 H         -8.93632   -2.267272   6.208343 H        1 UNL1     0.2922
     101 H         1.312874   2.629351   3.975518 H        1 UNL1     0.0236
     102 H         0.410139   2.037846   5.425088 H        1 UNL1     0.0236
     103 H         0.231134   3.66701   4.851262 H        1 UNL1     0.0236
     104 H         1.780962   2.704289   1.789865 H        1 UNL1     0.2098
     105 H         1.195874   0.966455   -0.80414 H        1 UNL1     0.0234
     106 H         1.420089   -0.776955   -0.48579 H        1 UNL1     0.0234
     107 H         0.0   -0.0   0.0 H        1 UNL1     0.0234
     108 H         1.498125   -0.500052   3.625448 H        1 UNL1     0.2098
     109 H         -1.670013   -2.829838   0.217062 H        1 UNL1     0.0234
     110 H         -0.753625   -1.474679   0.949577 H        1 UNL1     0.0234
     111 H         -0.632287   -1.797603   -0.744483 H        1 UNL1     0.0234
     112 H         3.547521   0.394799   -1.289808 H        1 UNL1     0.0342
     113 H         1.923724   0.358163   -2.064521 H        1 UNL1     0.0342
     114 H         2.148084   -0.271723   -0.43024 H        1 UNL1     0.0342
     115 H         4.84335   -2.848878   2.003649 H        1 UNL1     0.0234
     116 H         3.402149   -3.573903   2.723416 H        1 UNL1     0.0234
     117 H         4.063405   -4.105441   1.163334 H        1 UNL1     0.0234
     118 H         -3.47024   -3.252239   2.331022 H        1 UNL1     0.0309
     119 H         -2.974397   -4.760412   3.160248 H        1 UNL1     0.0309
     120 H         -4.574969   -4.082948   3.363642 H        1 UNL1     0.0309
     121 H         2.805951   -5.503084   1.814612 H        1 UNL1     0.0524
     122 H         2.766492   -5.533657   3.5822 H        1 UNL1     0.0524
     123 H         1.372122   -6.147725   2.658947 H        1 UNL1     0.0524
@<TRIPOS>BOND
     1     1     2    1
     2     1    42    1
     3     2     3    2
     4     3     4    1
     5     4     5    2
     6     5     7    1
     7     6    75    1
     8     6    76    1
     9     6    77    1
    10     7     9   am
    11     9    10    1
    12    10    11    2
    13    10    43    1
    14    11    14    1
    15    11    15    1
    16    12    13   ar
    17    12    27   ar
    18    12    43    1
    19    13    14    1
    20    13    30   ar
    21    14    17    2
    22    15    16    1
    23    16    17    1
    24    16    18    1
    25    16    22    1
    26    18    19    1
    27    19    20    1
    28    20    21    1
    29    21    22    1
    30    23    24    1
    31    23    88    1
    32    23    89    1
    33    24    25    1
    34    24    26    1
    35    24    90    1
    36    25    91    1
    37    25    92    1
    38    25    93    1
    39    26    94    1
    40    26    95    1
    41    26    96    1
    42    27    28   ar
    43    28    29   ar
    44    29    30   ar
    45    29    31    1
    46    30    33    1
    47    31    32    1
    48    32    33    1
    49    32    35    1
    50    34    97    1
    51    34    98    1
    52    34    99    1
    53    35    61    1
    54    36    37    1
    55    36    60    1
    56    37    38    1
    57    38    39    1
    58    39    40    1
    59    40    41    1
    60    41    42    1
    61    45   100    1
    62    47   101    1
    63    47   102    1
    64    47   103    1
    65    48   104    1
    66    49   105    1
    67    49   106    1
    68    49   107    1
    69    50   108    1
    70    51    59    1
    71    52   109    1
    72    52   110    1
    73    52   111    1
    74    53    54    1
    75    54    55    2
    76    54    56    1
    77    56   112    1
    78    56   113    1
    79    56   114    1
    80    57   115    1
    81    57   116    1
    82    57   117    1
    83    58   118    1
    84    58   119    1
    85    58   120    1
    86    59   121    1
    87    59   122    1
    88    59   123    1
    89    60    61    2
    90     1    47    1
    91     1    62    1
    92     2    63    1
    93     3    64    1
    94     4    65    1
    95     5     6    1
    96     7     8    2
    97     9    78    1
    98    15    79    1
    99    18    80    1
   100    18    81    1
   101    19    82    1
   102    19    83    1
   103    20    23    1
   104    21    84    1
   105    21    85    1
   106    22    86    1
   107    22    87    1
   108    27    45    1
   109    28    34    1
   110    32    58    1
   111    33    46    2
   112    36    51    1
   113    36    66    1
   114    37    52    1
   115    37    67    1
   116    38    53    1
   117    38    68    1
   118    42    48    1
   119    42    72    1
   120    43    44    2
   121    60    73    1
   122    61    74    1
   123    39    69    1
   124    39    57    1
   125    40    70    1
   126    40    50    1
   127    41    71    1
   128    41    49    1
