@<TRIPOS>MOLECULE
*****
 123 128 0 0 0
SMALL
GASTEIGER

@<TRIPOS>ATOM
     1 C         5.076795   1.982463   0.554745 C.3        1 UNL1     0.0009
     2 C         6.464631   2.89752   -0.265999 C.2        1 UNL1     -0.0787
     3 C         7.750279   2.895336   -0.931693 C.2        1 UNL1     -0.0649
     4 C         8.55491   4.202999   -1.645097 C.2        1 UNL1     -0.0542
     5 C         9.556583   4.584437   -2.571505 C.2        1 UNL1     0.0115
     6 C         10.719449   4.053715   -3.454342 C.3        1 UNL1     -0.0348
     7 C         9.565982   6.089555   -3.129644 C.2        1 UNL1     0.2441
     8 O         10.340711   6.944915   -2.723835 O.2        1 UNL1     -0.2702
     9 N         8.805435   6.290447   -4.294703 N.am        1 UNL1     -0.2772
     10 C         7.502349   6.59182   -3.971495 C.2        1 UNL1     0.1049
     11 C         6.714202   5.56411   -3.712925 C.2        1 UNL1     0.0801
     12 C         6.112497   8.074106   -2.512565 C.ar        1 UNL1     0.0753
     13 C         5.419951   6.890234   -2.103376 C.ar        1 UNL1     0.0305
     14 C         5.612612   5.615047   -2.790276 C.2        1 UNL1     0.0924
     15 N         6.91372   4.250306   -3.91452 N.pl3        1 UNL1     -0.3170
     16 C         5.680624   3.568732   -3.622657 C.3        1 UNL1     0.1275
     17 N         4.989569   4.453315   -2.613857 N.2        1 UNL1     -0.2557
     18 C         4.82623   3.619113   -4.88566 C.3        1 UNL1     0.0016
     19 C         5.619898   3.016745   -6.034064 C.3        1 UNL1     0.0026
     20 N         5.969347   1.644856   -5.692251 N.3        1 UNL1     -0.3018
     21 C         6.740283   1.488978   -4.457048 C.3        1 UNL1     0.0026
     22 C         5.92242   2.096623   -3.3161 C.3        1 UNL1     0.0016
     23 C         6.461009   0.888748   -6.826805 C.3        1 UNL1     0.0012
     24 C         5.322316   0.604628   -7.818979 C.3        1 UNL1     -0.0339
     25 C         5.652494   1.139553   -9.222152 C.3        1 UNL1     -0.0615
     26 C         5.013904   -0.882294   -7.845873 C.3        1 UNL1     -0.0615
     27 C         5.834496   9.309707   -1.932803 C.ar        1 UNL1     0.1347
     28 C         4.861087   9.492067   -0.966745 C.ar        1 UNL1     0.0342
     29 C         4.226315   8.304589   -0.544699 C.ar        1 UNL1     0.1435
     30 C         4.519892   7.054437   -1.090733 C.ar        1 UNL1     0.0774
     31 O         3.180192   8.330008   0.309694 O.3        1 UNL1     -0.4436
     32 C         2.531251   7.06269   0.126248 C.3        1 UNL1     0.3143
     33 C         3.600605   6.147677   -0.435398 C.2        1 UNL1     0.2504
     34 C         4.335646   10.815031   -0.483238 C.3        1 UNL1     -0.0327
     35 O         2.196082   6.563515   1.426917 O.2        1 UNL1     -0.4528
     36 C         -0.929352   4.460525   0.960887 C.3        1 UNL1     0.0854
     37 C         -1.160751   3.214033   0.022679 C.3        1 UNL1     0.0236
     38 C         -1.687459   1.895509   0.768211 C.3        1 UNL1     0.1131
     39 C         -0.932589   1.36573   2.053425 C.3        1 UNL1     0.0200
     40 C         0.734233   1.315415   2.093562 C.3        1 UNL1     0.0661
     41 C         1.736964   0.641632   0.902698 C.3        1 UNL1     0.0091
     42 C         3.420853   1.120544   0.354464 C.3        1 UNL1     0.0661
     43 C         7.073369   7.958127   -3.637525 C.2        1 UNL1     0.2131
     44 O         7.42076   8.900613   -4.325839 O.2        1 UNL1     -0.2851
     45 O         6.585544   10.404409   -2.35588 O.3        1 UNL1     -0.5056
     46 O         3.686297   4.943494   -0.343456 O.2        1 UNL1     -0.2836
     47 C         5.496897   1.530421   1.979228 C.3        1 UNL1     -0.0566
     48 O         3.950443   -0.264109   0.391707 O.3        1 UNL1     -0.3909
     49 C         0.918088   0.401294   -0.345971 C.3        1 UNL1     -0.0577
     50 O         1.262682   2.552674   2.526754 O.3        1 UNL1     -0.3910
     51 O         -1.042712   4.21912   2.345193 O.3        1 UNL1     -0.3753
     52 C         -0.108356   3.151664   -1.132103 C.3        1 UNL1     -0.0564
     53 O         -2.228507   0.852978   -0.165986 O.3        1 UNL1     -0.4608
     54 C         -2.355252   -0.481392   0.119182 C.2        1 UNL1     0.3042
     55 O         -1.625799   -1.398071   -0.256899 O.2        1 UNL1     -0.2512
     56 C         -3.498005   -0.793007   1.043155 C.3        1 UNL1     0.0332
     57 C         -1.691618   1.950728   3.333983 C.3        1 UNL1     -0.0567
     58 C         1.444025   7.279981   -0.95183 C.3        1 UNL1     0.0210
     59 C         -1.423985   5.353472   3.122201 C.3        1 UNL1     0.0372
     60 C         0.361017   5.172666   0.75361 C.2        1 UNL1     -0.0208
     61 C         1.24689   5.631739   1.638611 C.2        1 UNL1     0.0882
     62 H         4.544591   2.934078   0.672639 H        1 UNL1     0.0365
     63 H         6.137704   3.930173   -0.127371 H        1 UNL1     0.0576
     64 H         8.26329   1.96427   -1.182778 H        1 UNL1     0.0615
     65 H         8.015461   5.076958   -1.27003 H        1 UNL1     0.0622
     66 H         -1.715923   5.172293   0.673243 H        1 UNL1     0.0645
     67 H         -2.042572   3.492324   -0.580236 H        1 UNL1     0.0362
     68 H         -2.658382   2.265195   1.131754 H        1 UNL1     0.0741
     69 H         -1.205005   0.331341   2.215403 H        1 UNL1     0.0359
     70 H         0.883804   0.634546   2.953275 H        1 UNL1     0.0600
     71 H         1.839528   -0.388552   1.2966 H        1 UNL1     0.0348
     72 H         3.286518   1.569892   1.349128 H        1 UNL1     0.0602
     73 H         0.467628   5.409796   -0.275784 H        1 UNL1     0.0628
     74 H         1.241227   5.385962   2.70106 H        1 UNL1     0.1022
     75 H         10.777225   2.939904   -3.39848 H        1 UNL1     0.0279
     76 H         10.635966   4.23059   -4.524302 H        1 UNL1     0.0279
     77 H         11.709552   4.341631   -3.071588 H        1 UNL1     0.0279
     78 H         8.794146   5.435775   -4.84741 H        1 UNL1     0.1553
     79 H         7.602889   3.881741   -4.543915 H        1 UNL1     0.1484
     80 H         3.89496   3.067302   -4.709569 H        1 UNL1     0.0317
     81 H         4.539991   4.64921   -5.123608 H        1 UNL1     0.0317
     82 H         6.518279   3.6088   -6.262744 H        1 UNL1     0.0428
     83 H         4.992899   3.064356   -6.924937 H        1 UNL1     0.0428
     84 H         6.920758   0.445306   -4.181386 H        1 UNL1     0.0428
     85 H         7.747343   1.919226   -4.546678 H        1 UNL1     0.0428
     86 H         6.452185   1.847395   -2.415421 H        1 UNL1     0.0317
     87 H         4.97227   1.559259   -3.208629 H        1 UNL1     0.0317
     88 H         7.224501   1.492499   -7.334603 H        1 UNL1     0.0429
     89 H         6.947587   -0.041217   -6.505586 H        1 UNL1     0.0429
     90 H         4.407146   1.093994   -7.465147 H        1 UNL1     0.0308
     91 H         6.670723   0.87227   -9.520267 H        1 UNL1     0.0233
     92 H         4.948351   0.748396   -9.960249 H        1 UNL1     0.0233
     93 H         5.580574   2.232397   -9.280075 H        1 UNL1     0.0233
     94 H         4.511795   -1.147004   -8.782703 H        1 UNL1     0.0233
     95 H         5.942101   -1.457537   -7.786651 H        1 UNL1     0.0233
     96 H         4.366202   -1.170612   -7.013212 H        1 UNL1     0.0233
     97 H         3.491723   10.696865   0.189861 H        1 UNL1     0.0280
     98 H         5.091068   11.380113   0.078256 H        1 UNL1     0.0280
     99 H         4.008307   11.41936   -1.345056 H        1 UNL1     0.0280
     100 H         6.077529   11.162709   -2.585059 H        1 UNL1     0.2922
     101 H         4.631437   1.132998   2.509031 H        1 UNL1     0.0236
     102 H         5.999744   2.312998   2.546415 H        1 UNL1     0.0236
     103 H         6.216831   0.695427   1.953258 H        1 UNL1     0.0236
     104 H         4.289825   -0.425934   1.293707 H        1 UNL1     0.2098
     105 H         0.694734   1.299407   -0.916338 H        1 UNL1     0.0234
     106 H         1.307141   -0.376466   -1.002975 H        1 UNL1     0.0234
     107 H         0.0   -0.0   0.0 H        1 UNL1     0.0234
     108 H         1.081446   3.207197   1.824957 H        1 UNL1     0.2098
     109 H         0.921936   3.097992   -0.753513 H        1 UNL1     0.0234
     110 H         -0.285139   2.327422   -1.831472 H        1 UNL1     0.0234
     111 H         -0.14663   4.04935   -1.763484 H        1 UNL1     0.0234
     112 H         -3.530155   -1.867797   1.245982 H        1 UNL1     0.0342
     113 H         -3.443526   -0.222161   1.968903 H        1 UNL1     0.0342
     114 H         -4.43345   -0.517697   0.536884 H        1 UNL1     0.0342
     115 H         -2.769362   1.739497   3.301763 H        1 UNL1     0.0234
     116 H         -1.311534   1.574252   4.285745 H        1 UNL1     0.0234
     117 H         -1.691855   3.05339   3.37957 H        1 UNL1     0.0234
     118 H         0.429151   7.305989   -0.517825 H        1 UNL1     0.0309
     119 H         1.60287   8.185636   -1.545767 H        1 UNL1     0.0309
     120 H         1.391217   6.452905   -1.668253 H        1 UNL1     0.0309
     121 H         -1.044399   5.203679   4.132564 H        1 UNL1     0.0524
     122 H         -0.985881   6.289853   2.738412 H        1 UNL1     0.0524
     123 H         -2.505772   5.451213   3.138861 H        1 UNL1     0.0524
@<TRIPOS>BOND
     1     1     2    1
     2     1    42    1
     3     2     3    2
     4     3     4    1
     5     4     5    2
     6     5     7    1
     7     6    75    1
     8     6    76    1
     9     6    77    1
    10     7     9   am
    11     9    10    1
    12    10    11    2
    13    10    43    1
    14    11    14    1
    15    11    15    1
    16    12    13   ar
    17    12    27   ar
    18    12    43    1
    19    13    14    1
    20    13    30   ar
    21    14    17    2
    22    15    16    1
    23    16    17    1
    24    16    18    1
    25    16    22    1
    26    18    19    1
    27    19    20    1
    28    20    21    1
    29    21    22    1
    30    23    24    1
    31    23    88    1
    32    23    89    1
    33    24    25    1
    34    24    26    1
    35    24    90    1
    36    25    91    1
    37    25    92    1
    38    25    93    1
    39    26    94    1
    40    26    95    1
    41    26    96    1
    42    27    28   ar
    43    28    29   ar
    44    29    30   ar
    45    29    31    1
    46    30    33    1
    47    31    32    1
    48    32    33    1
    49    32    35    1
    50    34    97    1
    51    34    98    1
    52    34    99    1
    53    35    61    1
    54    36    37    1
    55    36    60    1
    56    37    38    1
    57    38    39    1
    58    39    40    1
    59    40    41    1
    60    41    42    1
    61    45   100    1
    62    47   101    1
    63    47   102    1
    64    47   103    1
    65    48   104    1
    66    49   105    1
    67    49   106    1
    68    49   107    1
    69    50   108    1
    70    51    59    1
    71    52   109    1
    72    52   110    1
    73    52   111    1
    74    53    54    1
    75    54    55    2
    76    54    56    1
    77    56   112    1
    78    56   113    1
    79    56   114    1
    80    57   115    1
    81    57   116    1
    82    57   117    1
    83    58   118    1
    84    58   119    1
    85    58   120    1
    86    59   121    1
    87    59   122    1
    88    59   123    1
    89    60    61    2
    90     1    47    1
    91     1    62    1
    92     2    63    1
    93     3    64    1
    94     4    65    1
    95     5     6    1
    96     7     8    2
    97     9    78    1
    98    15    79    1
    99    18    80    1
   100    18    81    1
   101    19    82    1
   102    19    83    1
   103    20    23    1
   104    21    84    1
   105    21    85    1
   106    22    86    1
   107    22    87    1
   108    27    45    1
   109    28    34    1
   110    32    58    1
   111    33    46    2
   112    36    51    1
   113    36    66    1
   114    37    52    1
   115    37    67    1
   116    38    53    1
   117    38    68    1
   118    42    48    1
   119    42    72    1
   120    43    44    2
   121    60    73    1
   122    61    74    1
   123    39    69    1
   124    39    57    1
   125    40    70    1
   126    40    50    1
   127    41    71    1
   128    41    49    1
