@<TRIPOS>MOLECULE
*****
 123 128 0 0 0
SMALL
GASTEIGER

@<TRIPOS>ATOM
     1 C         0.177392   3.54714   3.343511 C.3        1 UNL1     0.0009
     2 C         -0.84958   4.957854   3.96981 C.2        1 UNL1     -0.0787
     3 C         -1.324972   6.319336   3.841689 C.2        1 UNL1     -0.0649
     4 C         -2.488947   7.108181   4.784687 C.2        1 UNL1     -0.0542
     5 C         -3.396207   8.194857   4.84028 C.2        1 UNL1     0.0115
     6 C         -3.829851   9.507328   4.131269 C.3        1 UNL1     -0.0348
     7 C         -4.583113   8.161448   5.920617 C.2        1 UNL1     0.2441
     8 O         -4.55281   8.801858   6.962481 O.2        1 UNL1     -0.2702
     9 N         -5.770173   7.555974   5.472909 N.am        1 UNL1     -0.2772
     10 C         -5.736782   6.200853   5.709241 C.2        1 UNL1     0.1049
     11 C         -5.102167   5.468943   4.81158 C.2        1 UNL1     0.0801
     12 C         -5.253622   4.508698   7.487021 C.ar        1 UNL1     0.0753
     13 C         -4.405661   3.862753   6.531864 C.ar        1 UNL1     0.0305
     14 C         -4.406528   4.249691   5.122846 C.2        1 UNL1     0.0924
     15 N         -4.656195   5.798531   3.587241 N.pl3        1 UNL1     -0.3170
     16 C         -4.190528   4.595188   2.950551 C.3        1 UNL1     0.1275
     17 N         -3.768259   3.702822   4.092082 N.2        1 UNL1     -0.2557
     18 C         -5.40267   3.922632   2.313306 C.3        1 UNL1     0.0016
     19 C         -6.069614   4.913129   1.372195 C.3        1 UNL1     0.0026
     20 N         -5.104142   5.32011   0.360633 N.3        1 UNL1     -0.3018
     21 C         -3.875047   5.922539   0.880992 C.3        1 UNL1     0.0026
     22 C         -3.219215   4.90877   1.820168 C.3        1 UNL1     0.0016
     23 C         -5.714002   6.022817   -0.750635 C.3        1 UNL1     0.0012
     24 C         -6.034676   5.047298   -1.894001 C.3        1 UNL1     -0.0339
     25 C         -6.343234   3.638388   -1.361252 C.3        1 UNL1     -0.0615
     26 C         -7.176772   5.589102   -2.735931 C.3        1 UNL1     -0.0615
     27 C         -5.336439   4.055507   8.801509 C.ar        1 UNL1     0.1347
     28 C         -4.652073   2.946303   9.265578 C.ar        1 UNL1     0.0342
     29 C         -3.786098   2.355897   8.320765 C.ar        1 UNL1     0.1435
     30 C         -3.66544   2.820955   7.010657 C.ar        1 UNL1     0.0774
     31 O         -3.13413   1.202884   8.586294 O.3        1 UNL1     -0.4436
     32 C         -2.767025   0.688694   7.297219 C.3        1 UNL1     0.3143
     33 C         -2.747771   1.895012   6.380355 C.2        1 UNL1     0.2504
     34 C         -4.881615   2.255214   10.580799 C.3        1 UNL1     -0.0327
     35 O         -1.417335   0.217524   7.395145 O.2        1 UNL1     -0.4528
     36 C         -1.128109   -2.635613   4.908371 C.3        1 UNL1     0.0854
     37 C         -1.40077   -2.634779   3.35493 C.3        1 UNL1     0.0236
     38 C         -0.179367   -3.152854   2.454086 C.3        1 UNL1     0.1131
     39 C         1.26514   -2.543407   2.664431 C.3        1 UNL1     0.0200
     40 C         1.468046   -0.899543   2.861855 C.3        1 UNL1     0.0661
     41 C         0.814688   0.308903   1.866671 C.3        1 UNL1     0.0091
     42 C         0.255295   2.008901   2.269774 C.3        1 UNL1     0.0661
     43 C         -6.109998   5.622236   7.008574 C.2        1 UNL1     0.2131
     44 O         -7.122767   5.985348   7.578826 O.2        1 UNL1     -0.2851
     45 O         -6.150421   4.768232   9.679515 O.3        1 UNL1     -0.5056
     46 O         -2.103143   2.062855   5.369347 O.2        1 UNL1     -0.2836
     47 C         1.679976   3.800638   3.640092 C.3        1 UNL1     -0.0566
     48 O         0.973385   2.636897   1.134396 O.3        1 UNL1     -0.3909
     49 C         -0.247485   -0.307403   0.983806 C.3        1 UNL1     -0.0577
     50 O         1.324863   -0.53648   4.220313 O.3        1 UNL1     -0.3910
     51 O         0.195579   -2.919949   5.30135 O.3        1 UNL1     -0.3753
     52 C         -2.300308   -1.431036   2.922746 C.3        1 UNL1     -0.0564
     53 O         -0.569465   -3.474504   1.041043 O.3        1 UNL1     -0.4608
     54 C         0.135278   -4.280197   0.1854 C.2        1 UNL1     0.3042
     55 O         -0.273561   -4.813641   -0.845195 O.2        1 UNL1     -0.2512
     56 C         1.577362   -4.450426   0.570274 C.3        1 UNL1     0.0332
     57 C         2.059763   -3.516624   3.654177 C.3        1 UNL1     -0.0567
     58 C         -3.913143   -0.252613   6.859175 C.3        1 UNL1     0.0210
     59 C         0.32472   -3.4941   6.601173 C.3        1 UNL1     0.0372
     60 C         -1.528265   -1.389881   5.617729 C.2        1 UNL1     -0.0208
     61 C         -0.882336   -0.674518   6.539561 C.2        1 UNL1     0.0882
     62 H         -0.204012   2.929597   4.165633 H        1 UNL1     0.0365
     63 H         -1.232337   4.533622   4.900399 H        1 UNL1     0.0576
     64 H         -1.072295   6.934735   2.975349 H        1 UNL1     0.0615
     65 H         -2.608094   6.454068   5.652686 H        1 UNL1     0.0622
     66 H         -1.778769   -3.428986   5.302386 H        1 UNL1     0.0645
     67 H         -2.13782   -3.443973   3.211677 H        1 UNL1     0.0362
     68 H         -0.11317   -4.191108   2.813485 H        1 UNL1     0.0741
     69 H         1.862199   -2.752303   1.78677 H        1 UNL1     0.0359
     70 H         2.55432   -0.81666   2.66641 H        1 UNL1     0.0600
     71 H         1.646991   0.437723   1.147203 H        1 UNL1     0.0348
     72 H         0.914237   1.702751   3.095233 H        1 UNL1     0.0602
     73 H         -2.537257   -1.161009   5.379398 H        1 UNL1     0.0628
     74 H         0.168565   -0.807628   6.79865 H        1 UNL1     0.1022
     75 H         -4.933071   9.51341   3.958345 H        1 UNL1     0.0279
     76 H         -3.674207   10.431339   4.68358 H        1 UNL1     0.0279
     77 H         -3.448694   9.580694   3.102174 H        1 UNL1     0.0279
     78 H         -5.864407   7.689483   4.468233 H        1 UNL1     0.1553
     79 H         -4.981978   6.595373   3.071642 H        1 UNL1     0.1484
     80 H         -5.073004   3.022925   1.779812 H        1 UNL1     0.0317
     81 H         -6.113156   3.590911   3.078042 H        1 UNL1     0.0317
     82 H         -6.467135   5.784443   1.913215 H        1 UNL1     0.0428
     83 H         -6.932295   4.413741   0.930105 H        1 UNL1     0.0428
     84 H         -3.134152   6.145715   0.10699 H        1 UNL1     0.0428
     85 H         -4.065697   6.89478   1.356089 H        1 UNL1     0.0428
     86 H         -2.263193   5.326885   2.075491 H        1 UNL1     0.0317
     87 H         -2.958429   3.998775   1.266095 H        1 UNL1     0.0317
     88 H         -6.653107   6.469251   -0.398396 H        1 UNL1     0.0429
     89 H         -5.077436   6.846171   -1.099414 H        1 UNL1     0.0429
     90 H         -5.170528   4.985007   -2.565999 H        1 UNL1     0.0308
     91 H         -5.453688   3.001693   -1.38198 H        1 UNL1     0.0233
     92 H         -6.725651   3.687117   -0.339004 H        1 UNL1     0.0233
     93 H         -7.113593   3.127998   -1.951917 H        1 UNL1     0.0233
     94 H         -7.426806   4.881276   -3.533616 H        1 UNL1     0.0233
     95 H         -8.066657   5.725449   -2.115064 H        1 UNL1     0.0233
     96 H         -6.915469   6.547343   -3.193603 H        1 UNL1     0.0233
     97 H         -4.302237   1.340836   10.667192 H        1 UNL1     0.0280
     98 H         -4.586003   2.880019   11.433728 H        1 UNL1     0.0280
     99 H         -5.948947   1.998837   10.681642 H        1 UNL1     0.0280
     100 H         -6.209998   5.689643   9.49765 H        1 UNL1     0.2922
     101 H         1.780146   4.400246   4.544577 H        1 UNL1     0.0236
     102 H         2.21524   4.238116   2.798018 H        1 UNL1     0.0236
     103 H         2.221619   2.866093   3.862446 H        1 UNL1     0.0236
     104 H         1.799315   3.023648   1.485443 H        1 UNL1     0.2098
     105 H         -0.26781   -1.394237   0.997582 H        1 UNL1     0.0234
     106 H         -1.250938   0.091118   1.132763 H        1 UNL1     0.0234
     107 H         0.0   0.0   0.0 H        1 UNL1     0.0234
     108 H         1.866174   0.263324   4.365445 H        1 UNL1     0.2098
     109 H         -2.092403   -0.524922   3.508786 H        1 UNL1     0.0234
     110 H         -2.227445   -1.201121   1.854301 H        1 UNL1     0.0234
     111 H         -3.366071   -1.6465   3.076599 H        1 UNL1     0.0234
     112 H         1.66885   -5.225461   1.337279 H        1 UNL1     0.0342
     113 H         2.206878   -4.675245   -0.289382 H        1 UNL1     0.0342
     114 H         1.930823   -3.504579   1.003408 H        1 UNL1     0.0342
     115 H         1.412997   -4.310181   4.053112 H        1 UNL1     0.0234
     116 H         2.928526   -3.997995   3.200763 H        1 UNL1     0.0234
     117 H         2.390509   -3.023494   4.584431 H        1 UNL1     0.0234
     118 H         -3.629849   -1.316618   6.940693 H        1 UNL1     0.0309
     119 H         -4.841907   -0.085757   7.413936 H        1 UNL1     0.0309
     120 H         -4.168236   -0.139621   5.799804 H        1 UNL1     0.0309
     121 H         0.65106   -2.705717   7.278898 H        1 UNL1     0.0524
     122 H         -0.633211   -3.884693   6.983064 H        1 UNL1     0.0524
     123 H         1.052934   -4.300046   6.5854 H        1 UNL1     0.0524
@<TRIPOS>BOND
     1     1     2    1
     2     1    42    1
     3     2     3    2
     4     3     4    1
     5     4     5    2
     6     5     7    1
     7     6    75    1
     8     6    76    1
     9     6    77    1
    10     7     9   am
    11     9    10    1
    12    10    11    2
    13    10    43    1
    14    11    14    1
    15    11    15    1
    16    12    13   ar
    17    12    27   ar
    18    12    43    1
    19    13    14    1
    20    13    30   ar
    21    14    17    2
    22    15    16    1
    23    16    17    1
    24    16    18    1
    25    16    22    1
    26    18    19    1
    27    19    20    1
    28    20    21    1
    29    21    22    1
    30    23    24    1
    31    23    88    1
    32    23    89    1
    33    24    25    1
    34    24    26    1
    35    24    90    1
    36    25    91    1
    37    25    92    1
    38    25    93    1
    39    26    94    1
    40    26    95    1
    41    26    96    1
    42    27    28   ar
    43    28    29   ar
    44    29    30   ar
    45    29    31    1
    46    30    33    1
    47    31    32    1
    48    32    33    1
    49    32    35    1
    50    34    97    1
    51    34    98    1
    52    34    99    1
    53    35    61    1
    54    36    37    1
    55    36    60    1
    56    37    38    1
    57    38    39    1
    58    39    40    1
    59    40    41    1
    60    41    42    1
    61    45   100    1
    62    47   101    1
    63    47   102    1
    64    47   103    1
    65    48   104    1
    66    49   105    1
    67    49   106    1
    68    49   107    1
    69    50   108    1
    70    51    59    1
    71    52   109    1
    72    52   110    1
    73    52   111    1
    74    53    54    1
    75    54    55    2
    76    54    56    1
    77    56   112    1
    78    56   113    1
    79    56   114    1
    80    57   115    1
    81    57   116    1
    82    57   117    1
    83    58   118    1
    84    58   119    1
    85    58   120    1
    86    59   121    1
    87    59   122    1
    88    59   123    1
    89    60    61    2
    90     1    47    1
    91     1    62    1
    92     2    63    1
    93     3    64    1
    94     4    65    1
    95     5     6    1
    96     7     8    2
    97     9    78    1
    98    15    79    1
    99    18    80    1
   100    18    81    1
   101    19    82    1
   102    19    83    1
   103    20    23    1
   104    21    84    1
   105    21    85    1
   106    22    86    1
   107    22    87    1
   108    27    45    1
   109    28    34    1
   110    32    58    1
   111    33    46    2
   112    36    51    1
   113    36    66    1
   114    37    52    1
   115    37    67    1
   116    38    53    1
   117    38    68    1
   118    42    48    1
   119    42    72    1
   120    43    44    2
   121    60    73    1
   122    61    74    1
   123    39    69    1
   124    39    57    1
   125    40    70    1
   126    40    50    1
   127    41    71    1
   128    41    49    1
