@<TRIPOS>MOLECULE
*****
 123 128 0 0 0
SMALL
GASTEIGER

@<TRIPOS>ATOM
     1 C         0.702611   3.067615   4.484196 C.3        1 UNL1     0.0009
     2 C         0.884993   4.786799   5.15366 C.2        1 UNL1     -0.0787
     3 C         1.7194   5.853355   5.665782 C.2        1 UNL1     -0.0649
     4 C         1.262557   7.436501   6.054755 C.2        1 UNL1     -0.0542
     5 C         1.723667   8.759368   6.265657 C.2        1 UNL1     0.0115
     6 C         2.995651   9.633725   6.441381 C.3        1 UNL1     -0.0348
     7 C         0.668505   9.967916   6.210581 C.2        1 UNL1     0.2441
     8 O         0.226174   10.511295   7.213381 O.2        1 UNL1     -0.2702
     9 N         0.485831   10.532683   4.936289 N.am        1 UNL1     -0.2772
     10 C         -0.497385   9.858856   4.248854 C.2        1 UNL1     0.1049
     11 C         -0.122851   8.752331   3.632778 C.2        1 UNL1     0.0801
     12 C         -2.833095   8.991107   4.469771 C.ar        1 UNL1     0.0753
     13 C         -2.329933   7.73982   3.990481 C.ar        1 UNL1     0.0305
     14 C         -0.984987   7.619245   3.432241 C.2        1 UNL1     0.0924
     15 N         1.109442   8.275459   3.386661 N.pl3        1 UNL1     -0.3170
     16 C         0.972997   7.124282   2.534353 C.3        1 UNL1     0.1275
     17 N         -0.395065   6.574966   2.857436 N.2        1 UNL1     -0.2557
     18 C         0.897046   7.631881   1.097593 C.3        1 UNL1     0.0016
     19 C         2.127324   8.479513   0.815592 C.3        1 UNL1     0.0026
     20 N         3.315335   7.6624   1.020496 N.3        1 UNL1     -0.3018
     21 C         3.445005   7.077931   2.356891 C.3        1 UNL1     0.0026
     22 C         2.200823   6.227006   2.617336 C.3        1 UNL1     0.0016
     23 C         4.518945   8.275439   0.494998 C.3        1 UNL1     0.0012
     24 C         4.643888   9.725785   0.987585 C.3        1 UNL1     -0.0339
     25 C         5.092603   9.783934   2.457051 C.3        1 UNL1     -0.0615
     26 C         5.585477   10.503246   0.084399 C.3        1 UNL1     -0.0615
     27 C         -4.154963   9.124964   4.887941 C.ar        1 UNL1     0.1347
     28 C         -5.074818   8.092874   4.835913 C.ar        1 UNL1     0.0342
     29 C         -4.544298   6.857773   4.406681 C.ar        1 UNL1     0.1435
     30 C         -3.213164   6.699817   4.018928 C.ar        1 UNL1     0.0774
     31 O         -5.337645   5.784526   4.197526 O.3        1 UNL1     -0.4436
     32 C         -4.56475   4.922031   3.349229 C.3        1 UNL1     0.3143
     33 C         -3.122352   5.320392   3.587991 C.2        1 UNL1     0.2504
     34 C         -6.560075   8.225073   5.027313 C.3        1 UNL1     -0.0327
     35 O         -4.716765   3.587045   3.847181 O.2        1 UNL1     -0.4528
     36 C         -4.389281   1.307332   0.829939 C.3        1 UNL1     0.0854
     37 C         -3.199233   1.178653   -0.197072 C.3        1 UNL1     0.0236
     38 C         -2.607052   -0.30238   -0.363229 C.3        1 UNL1     0.1131
     39 C         -2.195039   -1.13167   0.919266 C.3        1 UNL1     0.0200
     40 C         -1.349079   -0.404789   2.159601 C.3        1 UNL1     0.0661
     41 C         0.054927   0.53191   1.989385 C.3        1 UNL1     0.0091
     42 C         0.655845   1.963791   2.966123 C.3        1 UNL1     0.0661
     43 C         -1.925296   10.164116   4.422754 C.2        1 UNL1     0.2131
     44 O         -2.315604   11.317539   4.419347 O.2        1 UNL1     -0.2851
     45 O         -4.552386   10.365123   5.383418 O.3        1 UNL1     -0.5056
     46 O         -2.12465   4.644636   3.470515 O.2        1 UNL1     -0.2836
     47 C         0.844678   2.026147   5.626624 C.3        1 UNL1     -0.0566
     48 O         2.035191   1.436803   3.103247 O.3        1 UNL1     -0.3909
     49 C         0.229505   0.888812   0.530057 C.3        1 UNL1     -0.0577
     50 O         -2.232419   0.210642   3.075395 O.3        1 UNL1     -0.3910
     51 O         -4.668557   0.157598   1.596454 O.3        1 UNL1     -0.3753
     52 C         -2.281294   2.444434   -0.185519 C.3        1 UNL1     -0.0564
     53 O         -1.736621   -0.468751   -1.574425 O.3        1 UNL1     -0.4608
     54 C         -0.37177   -0.591057   -1.561989 C.2        1 UNL1     0.3042
     55 O         0.295833   -1.451038   -0.988773 O.2        1 UNL1     -0.2512
     56 C         0.331644   0.434567   -2.404614 C.3        1 UNL1     0.0332
     57 C         -3.43433   -2.064658   1.308967 C.3        1 UNL1     -0.0567
     58 C         -4.947404   5.281698   1.894669 C.3        1 UNL1     0.0210
     59 C         -4.8494   0.396609   2.991458 C.3        1 UNL1     0.0372
     60 C         -4.275448   2.44291   1.785274 C.2        1 UNL1     -0.0208
     61 C         -4.485286   2.489588   3.101531 C.2        1 UNL1     0.0882
     62 H         -0.371455   3.250733   4.359451 H        1 UNL1     0.0365
     63 H         -0.160948   5.095636   5.209302 H        1 UNL1     0.0576
     64 H         2.80777   5.765286   5.694133 H        1 UNL1     0.0615
     65 H         0.17018   7.394747   6.076019 H        1 UNL1     0.0622
     66 H         -5.268808   1.524222   0.207495 H        1 UNL1     0.0645
     67 H         -3.675502   1.336185   -1.180389 H        1 UNL1     0.0362
     68 H         -3.49551   -0.811512   -0.766898 H        1 UNL1     0.0741
     69 H         -1.532873   -1.932419   0.618025 H        1 UNL1     0.0359
     70 H         -0.980983   -1.303002   2.691371 H        1 UNL1     0.0600
     71 H         0.826954   -0.252431   2.114851 H        1 UNL1     0.0348
     72 H         -0.079492   1.449979   3.602199 H        1 UNL1     0.0602
     73 H         -4.103899   3.339531   1.243157 H        1 UNL1     0.0628
     74 H         -4.610339   1.612591   3.737515 H        1 UNL1     0.1022
     75 H         2.739084   10.605772   6.927521 H        1 UNL1     0.0279
     76 H         3.768064   9.239988   7.098205 H        1 UNL1     0.0279
     77 H         3.413308   9.974395   5.482627 H        1 UNL1     0.0279
     78 H         1.346498   10.4504   4.399113 H        1 UNL1     0.1553
     79 H         1.939705   8.838484   3.411157 H        1 UNL1     0.1484
     80 H         0.837756   6.773348   0.417761 H        1 UNL1     0.0317
     81 H         -0.012363   8.221177   0.938353 H        1 UNL1     0.0317
     82 H         2.153608   9.381092   1.445178 H        1 UNL1     0.0428
     83 H         2.051955   8.832667   -0.213316 H        1 UNL1     0.0428
     84 H         4.302192   6.405347   2.460201 H        1 UNL1     0.0428
     85 H         3.614457   7.845901   3.12424 H        1 UNL1     0.0428
     86 H         2.390239   5.712251   3.54099 H        1 UNL1     0.0317
     87 H         2.141341   5.415311   1.882006 H        1 UNL1     0.0317
     88 H         5.381637   7.705463   0.864028 H        1 UNL1     0.0429
     89 H         4.545796   8.225837   -0.601174 H        1 UNL1     0.0429
     90 H         3.66902   10.21999   0.900354 H        1 UNL1     0.0308
     91 H         4.358779   10.308181   3.076542 H        1 UNL1     0.0233
     92 H         5.244231   8.777729   2.854757 H        1 UNL1     0.0233
     93 H         6.04733   10.309094   2.581708 H        1 UNL1     0.0233
     94 H         5.016028   11.041951   -0.68069 H        1 UNL1     0.0233
     95 H         6.142679   11.239343   0.670614 H        1 UNL1     0.0233
     96 H         6.296077   9.840012   -0.416737 H        1 UNL1     0.0233
     97 H         -6.82516   9.149114   5.532395 H        1 UNL1     0.0280
     98 H         -7.100826   8.238951   4.071985 H        1 UNL1     0.0280
     99 H         -6.930663   7.381735   5.63274 H        1 UNL1     0.0280
     100 H         -4.911311   10.342542   6.253064 H        1 UNL1     0.2922
     101 H         1.897714   1.792764   5.782524 H        1 UNL1     0.0236
     102 H         0.246486   1.129788   5.466343 H        1 UNL1     0.0236
     103 H         0.499916   2.424548   6.595442 H        1 UNL1     0.0236
     104 H         2.104206   1.016272   3.982657 H        1 UNL1     0.2098
     105 H         -0.438781   1.669558   0.175601 H        1 UNL1     0.0234
     106 H         1.255601   1.106767   0.234169 H        1 UNL1     0.0234
     107 H         0.0   0.0   0.0 H        1 UNL1     0.0234
     108 H         -2.55926   -0.4864   3.67629 H        1 UNL1     0.2098
     109 H         -1.565316   2.446678   -1.019235 H        1 UNL1     0.0234
     110 H         -2.844008   3.384163   -0.18325 H        1 UNL1     0.0234
     111 H         -1.673965   2.495623   0.727979 H        1 UNL1     0.0234
     112 H         1.2275   0.790596   -1.886897 H        1 UNL1     0.0342
     113 H         0.578106   0.052452   -3.394103 H        1 UNL1     0.0342
     114 H         -0.343489   1.291171   -2.537243 H        1 UNL1     0.0342
     115 H         -4.022346   -2.352306   0.426535 H        1 UNL1     0.0234
     116 H         -3.15283   -2.982271   1.829345 H        1 UNL1     0.0234
     117 H         -4.198845   -1.549787   1.915899 H        1 UNL1     0.0234
     118 H         -4.858967   6.364591   1.698378 H        1 UNL1     0.0309
     119 H         -4.363191   4.733609   1.148682 H        1 UNL1     0.0309
     120 H         -5.998857   5.069692   1.671944 H        1 UNL1     0.0309
     121 H         -5.76629   0.973124   3.111034 H        1 UNL1     0.0524
     122 H         -4.968007   -0.538255   3.56417 H        1 UNL1     0.0524
     123 H         -4.004025   0.949827   3.390689 H        1 UNL1     0.0524
@<TRIPOS>BOND
     1     1     2    1
     2     1    42    1
     3     2     3    2
     4     3     4    1
     5     4     5    2
     6     5     7    1
     7     6    75    1
     8     6    76    1
     9     6    77    1
    10     7     9   am
    11     9    10    1
    12    10    11    2
    13    10    43    1
    14    11    14    1
    15    11    15    1
    16    12    13   ar
    17    12    27   ar
    18    12    43    1
    19    13    14    1
    20    13    30   ar
    21    14    17    2
    22    15    16    1
    23    16    17    1
    24    16    18    1
    25    16    22    1
    26    18    19    1
    27    19    20    1
    28    20    21    1
    29    21    22    1
    30    23    24    1
    31    23    88    1
    32    23    89    1
    33    24    25    1
    34    24    26    1
    35    24    90    1
    36    25    91    1
    37    25    92    1
    38    25    93    1
    39    26    94    1
    40    26    95    1
    41    26    96    1
    42    27    28   ar
    43    28    29   ar
    44    29    30   ar
    45    29    31    1
    46    30    33    1
    47    31    32    1
    48    32    33    1
    49    32    35    1
    50    34    97    1
    51    34    98    1
    52    34    99    1
    53    35    61    1
    54    36    37    1
    55    36    60    1
    56    37    38    1
    57    38    39    1
    58    39    40    1
    59    40    41    1
    60    41    42    1
    61    45   100    1
    62    47   101    1
    63    47   102    1
    64    47   103    1
    65    48   104    1
    66    49   105    1
    67    49   106    1
    68    49   107    1
    69    50   108    1
    70    51    59    1
    71    52   109    1
    72    52   110    1
    73    52   111    1
    74    53    54    1
    75    54    55    2
    76    54    56    1
    77    56   112    1
    78    56   113    1
    79    56   114    1
    80    57   115    1
    81    57   116    1
    82    57   117    1
    83    58   118    1
    84    58   119    1
    85    58   120    1
    86    59   121    1
    87    59   122    1
    88    59   123    1
    89    60    61    2
    90     1    47    1
    91     1    62    1
    92     2    63    1
    93     3    64    1
    94     4    65    1
    95     5     6    1
    96     7     8    2
    97     9    78    1
    98    15    79    1
    99    18    80    1
   100    18    81    1
   101    19    82    1
   102    19    83    1
   103    20    23    1
   104    21    84    1
   105    21    85    1
   106    22    86    1
   107    22    87    1
   108    27    45    1
   109    28    34    1
   110    32    58    1
   111    33    46    2
   112    36    51    1
   113    36    66    1
   114    37    52    1
   115    37    67    1
   116    38    53    1
   117    38    68    1
   118    42    48    1
   119    42    72    1
   120    43    44    2
   121    60    73    1
   122    61    74    1
   123    39    69    1
   124    39    57    1
   125    40    70    1
   126    40    50    1
   127    41    71    1
   128    41    49    1
