@<TRIPOS>MOLECULE
*****
 123 128 0 0 0
SMALL
GASTEIGER

@<TRIPOS>ATOM
     1 C         5.12249   1.843253   0.601485 C.3        1 UNL1     0.0009
     2 C         6.558864   2.683697   -0.215535 C.2        1 UNL1     -0.0787
     3 C         7.854506   2.615556   -0.857962 C.2        1 UNL1     -0.0649
     4 C         8.721809   3.873438   -1.587262 C.2        1 UNL1     -0.0542
     5 C         9.753208   4.193283   -2.504319 C.2        1 UNL1     0.0115
     6 C         10.909097   3.596707   -3.353636 C.3        1 UNL1     -0.0348
     7 C         9.831134   5.683045   -3.097216 C.2        1 UNL1     0.2441
     8 O         10.63188   6.517167   -2.697751 O.2        1 UNL1     -0.2702
     9 N         9.098868   5.885264   -4.280028 N.am        1 UNL1     -0.2772
     10 C         7.803343   6.244724   -3.987241 C.2        1 UNL1     0.1049
     11 C         6.971191   5.254927   -3.718826 C.2        1 UNL1     0.0801
     12 C         6.448299   7.814541   -2.588361 C.ar        1 UNL1     0.0753
     13 C         5.702982   6.668653   -2.164038 C.ar        1 UNL1     0.0305
     14 C         5.857009   5.370796   -2.81741 C.2        1 UNL1     0.0924
     15 N         7.122347   3.929896   -3.886078 N.pl3        1 UNL1     -0.3170
     16 C         5.858681   3.303962   -3.600407 C.3        1 UNL1     0.1275
     17 N         5.185936   4.238727   -2.625035 N.2        1 UNL1     -0.2557
     18 C         5.0284   3.357119   -4.879278 C.3        1 UNL1     0.0016
     19 C         5.817107   2.696931   -5.998957 C.3        1 UNL1     0.0026
     20 N         6.106588   1.321116   -5.619006 N.3        1 UNL1     -0.3018
     21 C         6.849815   1.165146   -4.366945 C.3        1 UNL1     0.0026
     22 C         6.03727   1.831367   -3.255274 C.3        1 UNL1     0.0016
     23 C         6.587294   0.519415   -6.726635 C.3        1 UNL1     0.0012
     24 C         5.455261   0.255979   -7.732049 C.3        1 UNL1     -0.0339
     25 C         5.493561   1.258278   -8.897377 C.3        1 UNL1     -0.0615
     26 C         5.521071   -1.178661   -8.226271 C.3        1 UNL1     -0.0615
     27 C         6.209267   9.073593   -2.042678 C.ar        1 UNL1     0.1347
     28 C         5.227575   9.316812   -1.098657 C.ar        1 UNL1     0.0342
     29 C         4.53962   8.165385   -0.660368 C.ar        1 UNL1     0.1435
     30 C         4.793073   6.892003   -1.171721 C.ar        1 UNL1     0.0774
     31 O         3.481006   8.251967   0.174406 O.3        1 UNL1     -0.4436
     32 C         2.785998   7.006775   0.009077 C.3        1 UNL1     0.3143
     33 C         3.827942   6.037665   -0.511876 C.2        1 UNL1     0.2504
     34 C         4.746387   10.670435   -0.655641 C.3        1 UNL1     -0.0327
     35 O         2.409544   6.552418   1.31487 O.2        1 UNL1     -0.4528
     36 C         -0.787729   4.561855   0.84244 C.3        1 UNL1     0.0854
     37 C         -1.051999   3.303097   -0.070364 C.3        1 UNL1     0.0236
     38 C         -1.642603   2.02434   0.696259 C.3        1 UNL1     0.1131
     39 C         -0.930955   1.496687   2.006759 C.3        1 UNL1     0.0200
     40 C         0.731688   1.382626   2.07778 C.3        1 UNL1     0.0661
     41 C         1.72718   0.641954   0.921056 C.3        1 UNL1     0.0091
     42 C         3.437604   1.041758   0.391898 C.3        1 UNL1     0.0661
     43 C         7.422758   7.634301   -3.69299 C.2        1 UNL1     0.2131
     44 O         7.818477   8.545756   -4.396832 O.2        1 UNL1     -0.2851
     45 O         7.009766   10.127798   -2.477755 O.3        1 UNL1     -0.5056
     46 O         3.864717   4.833621   -0.390311 O.2        1 UNL1     -0.2836
     47 C         5.500374   1.40961   2.043407 C.3        1 UNL1     -0.0566
     48 O         3.91171   -0.36113   0.470923 O.3        1 UNL1     -0.3909
     49 C         0.920728   0.403661   -0.336062 C.3        1 UNL1     -0.0577
     50 O         1.300913   2.608476   2.4913 O.3        1 UNL1     -0.3910
     51 O         -0.933869   4.35839   2.229767 O.3        1 UNL1     -0.3753
     52 C         0.016509   3.172137   -1.204423 C.3        1 UNL1     -0.0564
     53 O         -2.208298   0.981458   -0.222824 O.3        1 UNL1     -0.4608
     54 C         -2.423709   -0.332292   0.102118 C.2        1 UNL1     0.3042
     55 O         -1.827441   -1.316711   -0.33288 O.2        1 UNL1     -0.2512
     56 C         -3.479988   -0.526622   1.152463 C.3        1 UNL1     0.0332
     57 C         -1.687971   2.141355   3.259558 C.3        1 UNL1     -0.0567
     58 C         1.726525   7.240162   -1.093002 C.3        1 UNL1     0.0210
     59 C         -1.283389   5.525054   2.973135 C.3        1 UNL1     0.0372
     60 C         0.532927   5.218132   0.641625 C.2        1 UNL1     -0.0208
     61 C         1.421053   5.663585   1.531316 C.2        1 UNL1     0.0882
     62 H         4.626145   2.817387   0.687602 H        1 UNL1     0.0365
     63 H         6.27044   3.731307   -0.106924 H        1 UNL1     0.0576
     64 H         8.334733   1.659493   -1.078036 H        1 UNL1     0.0615
     65 H         8.21083   4.776461   -1.242397 H        1 UNL1     0.0622
     66 H         -1.54077   5.296525   0.524262 H        1 UNL1     0.0645
     67 H         -1.911892   3.600862   -0.695247 H        1 UNL1     0.0362
     68 H         -2.604269   2.440105   1.033692 H        1 UNL1     0.0741
     69 H         -1.246477   0.477857   2.187977 H        1 UNL1     0.0359
     70 H         0.839853   0.717328   2.955697 H        1 UNL1     0.0600
     71 H         1.78254   -0.381669   1.340686 H        1 UNL1     0.0348
     72 H         3.304219   1.519772   1.373237 H        1 UNL1     0.0602
     73 H         0.666156   5.426121   -0.390963 H        1 UNL1     0.0628
     74 H         1.387782   5.44383   2.598948 H        1 UNL1     0.1022
     75 H         10.972045   2.49126   -3.208517 H        1 UNL1     0.0279
     76 H         10.813864   3.686176   -4.433448 H        1 UNL1     0.0279
     77 H         11.901894   3.91789   -3.005934 H        1 UNL1     0.0279
     78 H         9.063375   5.018634   -4.812729 H        1 UNL1     0.1553
     79 H         7.807056   3.519805   -4.494299 H        1 UNL1     0.1484
     80 H         4.073337   2.846302   -4.706978 H        1 UNL1     0.0317
     81 H         4.786894   4.39154   -5.146296 H        1 UNL1     0.0317
     82 H         6.74178   3.247964   -6.225351 H        1 UNL1     0.0428
     83 H         5.207612   2.747434   -6.90174 H        1 UNL1     0.0428
     84 H         6.984484   0.12218   -4.063799 H        1 UNL1     0.0428
     85 H         7.874364   1.553662   -4.448631 H        1 UNL1     0.0428
     86 H         6.541536   1.583472   -2.339713 H        1 UNL1     0.0317
     87 H         5.065071   1.334065   -3.152238 H        1 UNL1     0.0317
     88 H         7.38238   1.080662   -7.234704 H        1 UNL1     0.0429
     89 H         7.03148   -0.42076   -6.375149 H        1 UNL1     0.0429
     90 H         4.490487   0.352444   -7.220074 H        1 UNL1     0.0308
     91 H         6.457263   1.230146   -9.414667 H        1 UNL1     0.0233
     92 H         4.695762   1.048507   -9.613702 H        1 UNL1     0.0233
     93 H         5.341382   2.292057   -8.564244 H        1 UNL1     0.0233
     94 H         4.844847   -1.316509   -9.076891 H        1 UNL1     0.0233
     95 H         6.535654   -1.412417   -8.560848 H        1 UNL1     0.0233
     96 H         5.236898   -1.884691   -7.440946 H        1 UNL1     0.0233
     97 H         3.934437   10.599474   0.061947 H        1 UNL1     0.0280
     98 H         5.536675   11.248455   -0.159059 H        1 UNL1     0.0280
     99 H         4.386819   11.238404   -1.529263 H        1 UNL1     0.0280
     100 H         6.534376   10.872475   -2.80192 H        1 UNL1     0.2922
     101 H         4.636886   0.955403   2.52894 H        1 UNL1     0.0236
     102 H         5.924752   2.218648   2.636993 H        1 UNL1     0.0236
     103 H         6.271853   0.621594   2.050105 H        1 UNL1     0.0236
     104 H         4.317047   -0.486341   1.35126 H        1 UNL1     0.2098
     105 H         0.701429   1.302939   -0.906165 H        1 UNL1     0.0234
     106 H         1.317319   -0.37173   -0.991357 H        1 UNL1     0.0234
     107 H         0.0   -0.0   0.0 H        1 UNL1     0.0234
     108 H         1.108053   3.266952   1.79633 H        1 UNL1     0.2098
     109 H         1.036134   3.075174   -0.806081 H        1 UNL1     0.0234
     110 H         -0.18733   2.346351   -1.894546 H        1 UNL1     0.0234
     111 H         0.032743   4.060528   -1.849748 H        1 UNL1     0.0234
     112 H         -3.596067   -1.592552   1.370785 H        1 UNL1     0.0342
     113 H         -3.264482   0.036696   2.059146 H        1 UNL1     0.0342
     114 H         -4.434521   -0.159134   0.751235 H        1 UNL1     0.0342
     115 H         -2.753129   1.87235   3.275752 H        1 UNL1     0.0234
     116 H         -1.264048   1.862114   4.226183 H        1 UNL1     0.0234
     117 H         -1.746907   3.242633   3.218878 H        1 UNL1     0.0234
     118 H         0.808756   7.70633   -0.693763 H        1 UNL1     0.0309
     119 H         2.100075   7.842038   -1.927512 H        1 UNL1     0.0309
     120 H         1.363928   6.304459   -1.532422 H        1 UNL1     0.0309
     121 H         -0.473659   6.244907   2.856916 H        1 UNL1     0.0524
     122 H         -2.205597   5.999359   2.598163 H        1 UNL1     0.0524
     123 H         -1.416219   5.276454   4.022253 H        1 UNL1     0.0524
@<TRIPOS>BOND
     1     1     2    1
     2     1    42    1
     3     2     3    2
     4     3     4    1
     5     4     5    2
     6     5     7    1
     7     6    75    1
     8     6    76    1
     9     6    77    1
    10     7     9   am
    11     9    10    1
    12    10    11    2
    13    10    43    1
    14    11    14    1
    15    11    15    1
    16    12    13   ar
    17    12    27   ar
    18    12    43    1
    19    13    14    1
    20    13    30   ar
    21    14    17    2
    22    15    16    1
    23    16    17    1
    24    16    18    1
    25    16    22    1
    26    18    19    1
    27    19    20    1
    28    20    21    1
    29    21    22    1
    30    23    24    1
    31    23    88    1
    32    23    89    1
    33    24    25    1
    34    24    26    1
    35    24    90    1
    36    25    91    1
    37    25    92    1
    38    25    93    1
    39    26    94    1
    40    26    95    1
    41    26    96    1
    42    27    28   ar
    43    28    29   ar
    44    29    30   ar
    45    29    31    1
    46    30    33    1
    47    31    32    1
    48    32    33    1
    49    32    35    1
    50    34    97    1
    51    34    98    1
    52    34    99    1
    53    35    61    1
    54    36    37    1
    55    36    60    1
    56    37    38    1
    57    38    39    1
    58    39    40    1
    59    40    41    1
    60    41    42    1
    61    45   100    1
    62    47   101    1
    63    47   102    1
    64    47   103    1
    65    48   104    1
    66    49   105    1
    67    49   106    1
    68    49   107    1
    69    50   108    1
    70    51    59    1
    71    52   109    1
    72    52   110    1
    73    52   111    1
    74    53    54    1
    75    54    55    2
    76    54    56    1
    77    56   112    1
    78    56   113    1
    79    56   114    1
    80    57   115    1
    81    57   116    1
    82    57   117    1
    83    58   118    1
    84    58   119    1
    85    58   120    1
    86    59   121    1
    87    59   122    1
    88    59   123    1
    89    60    61    2
    90     1    47    1
    91     1    62    1
    92     2    63    1
    93     3    64    1
    94     4    65    1
    95     5     6    1
    96     7     8    2
    97     9    78    1
    98    15    79    1
    99    18    80    1
   100    18    81    1
   101    19    82    1
   102    19    83    1
   103    20    23    1
   104    21    84    1
   105    21    85    1
   106    22    86    1
   107    22    87    1
   108    27    45    1
   109    28    34    1
   110    32    58    1
   111    33    46    2
   112    36    51    1
   113    36    66    1
   114    37    52    1
   115    37    67    1
   116    38    53    1
   117    38    68    1
   118    42    48    1
   119    42    72    1
   120    43    44    2
   121    60    73    1
   122    61    74    1
   123    39    69    1
   124    39    57    1
   125    40    70    1
   126    40    50    1
   127    41    71    1
   128    41    49    1
