@<TRIPOS>MOLECULE
*****
 123 128 0 0 0
SMALL
GASTEIGER

@<TRIPOS>ATOM
     1 C         3.283181   -1.937668   -3.934198 C.3        1 UNL1     0.0009
     2 C         3.672039   -1.935795   -5.746882 C.2        1 UNL1     -0.0787
     3 C         3.61395   -2.574939   -7.044637 C.2        1 UNL1     -0.0649
     4 C         4.109584   -1.947221   -8.536842 C.2        1 UNL1     -0.0542
     5 C         3.981375   -2.058132   -9.943376 C.2        1 UNL1     0.0115
     6 C         3.416015   -2.943681   -11.087708 C.3        1 UNL1     -0.0348
     7 C         4.434937   -0.824119   -10.864508 C.2        1 UNL1     0.2441
     8 O         5.492699   -0.805792   -11.478779 O.2        1 UNL1     -0.2702
     9 N         3.424687   0.117531   -11.126885 N.am        1 UNL1     -0.2772
     10 C         3.39415   1.076469   -10.140565 C.2        1 UNL1     0.1049
     11 C         2.726834   0.763273   -9.044746 C.2        1 UNL1     0.0801
     12 C         4.857759   2.640415   -8.848569 C.ar        1 UNL1     0.0753
     13 C         4.24526   2.112932   -7.667378 C.ar        1 UNL1     0.0305
     14 C         3.066809   1.251761   -7.735863 C.2        1 UNL1     0.0924
     15 N         1.889457   -0.260665   -8.806254 N.pl3        1 UNL1     -0.3170
     16 C         1.294255   -0.04957   -7.513416 C.3        1 UNL1     0.1275
     17 N         2.317613   0.758736   -6.753744 N.2        1 UNL1     -0.2557
     18 C         0.092623   0.869012   -7.713389 C.3        1 UNL1     0.0016
     19 C         -0.837305   0.237434   -8.737075 C.3        1 UNL1     0.0026
     20 N         -1.252818   -1.06985   -8.247802 N.3        1 UNL1     -0.3018
     21 C         -0.160975   -2.004355   -7.966831 C.3        1 UNL1     0.0026
     22 C         0.758195   -1.351585   -6.932948 C.3        1 UNL1     0.0016
     23 C         -2.3638   -1.624686   -8.995144 C.3        1 UNL1     0.0012
     24 C         -3.653266   -0.840581   -8.704949 C.3        1 UNL1     -0.0339
     25 C         -4.235667   -0.221888   -9.986388 C.3        1 UNL1     -0.0615
     26 C         -4.662279   -1.736988   -8.008438 C.3        1 UNL1     -0.0615
     27 C         5.904673   3.555915   -8.771432 C.ar        1 UNL1     0.1347
     28 C         6.3962   4.046502   -7.574864 C.ar        1 UNL1     0.0342
     29 C         5.810882   3.476259   -6.424476 C.ar        1 UNL1     0.1435
     30 C         4.785997   2.531264   -6.486227 C.ar        1 UNL1     0.0774
     31 O         6.104328   3.929389   -5.186102 O.3        1 UNL1     -0.4436
     32 C         5.017943   3.473078   -4.366088 C.3        1 UNL1     0.3143
     33 C         4.438614   2.282293   -5.102715 C.2        1 UNL1     0.2504
     34 C         7.337408   5.208285   -7.418385 C.3        1 UNL1     -0.0327
     35 O         5.584011   2.974843   -3.147654 O.2        1 UNL1     -0.4528
     36 C         2.962713   3.562105   -0.465863 C.3        1 UNL1     0.0854
     37 C         1.469295   3.058577   -0.405148 C.3        1 UNL1     0.0236
     38 C         1.086052   2.237854   0.918213 C.3        1 UNL1     0.1131
     39 C         1.994616   1.029344   1.383277 C.3        1 UNL1     0.0200
     40 C         2.563744   -0.076453   0.271637 C.3        1 UNL1     0.0661
     41 C         1.632441   -0.881108   -0.895759 C.3        1 UNL1     0.0091
     42 C         2.074107   -1.456345   -2.580822 C.3        1 UNL1     0.0661
     43 C         4.281948   2.248574   -10.158974 C.2        1 UNL1     0.2131
     44 O         4.430391   2.895483   -11.179861 O.2        1 UNL1     -0.2851
     45 O         6.475513   3.985404   -9.967726 O.3        1 UNL1     -0.5056
     46 O         3.843782   1.331127   -4.647399 O.2        1 UNL1     -0.2836
     47 C         4.225904   -2.914713   -3.181444 C.3        1 UNL1     -0.0566
     48 O         1.486143   -2.80541   -2.397965 O.3        1 UNL1     -0.3909
     49 C         0.286409   -0.199464   -1.000901 C.3        1 UNL1     -0.0577
     50 O         3.777515   0.36748   -0.300558 O.3        1 UNL1     -0.3910
     51 O         3.81482   3.087188   0.551879 O.3        1 UNL1     -0.3753
     52 C         0.93333   2.655449   -1.817655 C.3        1 UNL1     -0.0564
     53 O         -0.392658   2.077604   1.118368 O.3        1 UNL1     -0.4608
     54 C         -1.010898   0.962056   1.619628 C.2        1 UNL1     0.3042
     55 O         -1.763392   0.898077   2.590966 O.2        1 UNL1     -0.2512
     56 C         -0.747294   -0.282089   0.820049 C.3        1 UNL1     0.0332
     57 C         3.024652   1.590823   2.470449 C.3        1 UNL1     -0.0567
     58 C         3.970452   4.610694   -4.355035 C.3        1 UNL1     0.0210
     59 C         4.180523   4.059725   1.529783 C.3        1 UNL1     0.0372
     60 C         3.657924   3.314036   -1.758265 C.2        1 UNL1     -0.0208
     61 C         4.882096   2.845996   -2.005419 C.2        1 UNL1     0.0882
     62 H         3.736632   -0.942234   -3.85543 H        1 UNL1     0.0365
     63 H         4.257487   -1.017618   -5.828563 H        1 UNL1     0.0576
     64 H         3.066712   -3.507501   -7.199444 H        1 UNL1     0.0615
     65 H         4.707182   -1.072549   -8.266086 H        1 UNL1     0.0622
     66 H         2.889921   4.654399   -0.367677 H        1 UNL1     0.0645
     67 H         0.880298   3.982195   -0.268872 H        1 UNL1     0.0362
     68 H         1.238027   3.024469   1.672974 H        1 UNL1     0.0741
     69 H         1.42743   0.409742   2.06504 H        1 UNL1     0.0359
     70 H         2.862624   -0.895592   0.953359 H        1 UNL1     0.0600
     71 H         1.367992   -1.798149   -0.333567 H        1 UNL1     0.0348
     72 H         3.026466   -1.312986   -2.049995 H        1 UNL1     0.0602
     73 H         3.06502   3.694745   -2.552478 H        1 UNL1     0.0628
     74 H         5.529026   2.38603   -1.257655 H        1 UNL1     0.1022
     75 H         3.690994   -4.014067   -10.927417 H        1 UNL1     0.0279
     76 H         2.332837   -2.990598   -11.174847 H        1 UNL1     0.0279
     77 H         3.892632   -2.740341   -12.057857 H        1 UNL1     0.0279
     78 H         2.518318   -0.345662   -11.131964 H        1 UNL1     0.1553
     79 H         1.444353   -0.796072   -9.528857 H        1 UNL1     0.1484
     80 H         -0.411176   1.013512   -6.750024 H        1 UNL1     0.0317
     81 H         0.410397   1.860719   -8.052784 H        1 UNL1     0.0317
     82 H         -0.360689   0.157101   -9.725152 H        1 UNL1     0.0428
     83 H         -1.686245   0.90957   -8.865852 H        1 UNL1     0.0428
     84 H         -0.49456   -2.948861   -7.525876 H        1 UNL1     0.0428
     85 H         0.363064   -2.308258   -8.883533 H        1 UNL1     0.0428
     86 H         1.465348   -2.110609   -6.654014 H        1 UNL1     0.0317
     87 H         0.205231   -1.166189   -6.003994 H        1 UNL1     0.0317
     88 H         -2.134033   -1.535858   -10.065009 H        1 UNL1     0.0429
     89 H         -2.493771   -2.693495   -8.781771 H        1 UNL1     0.0429
     90 H         -3.431099   -0.033201   -7.997141 H        1 UNL1     0.0308
     91 H         -3.998955   -0.829842   -10.864717 H        1 UNL1     0.0233
     92 H         -5.319978   -0.115322   -9.905626 H        1 UNL1     0.0233
     93 H         -3.843184   0.783681   -10.180359 H        1 UNL1     0.0233
     94 H         -5.674961   -1.341892   -8.14338 H        1 UNL1     0.0233
     95 H         -4.631618   -2.740839   -8.441226 H        1 UNL1     0.0233
     96 H         -4.459269   -1.8085   -6.936225 H        1 UNL1     0.0233
     97 H         6.912942   5.996656   -6.80395 H        1 UNL1     0.0280
     98 H         8.275771   4.917569   -6.928268 H        1 UNL1     0.0280
     99 H         7.570625   5.630401   -8.409609 H        1 UNL1     0.0280
     100 H         6.704024   3.293393   -10.563147 H        1 UNL1     0.2922
     101 H         4.985488   -2.349899   -2.641377 H        1 UNL1     0.0236
     102 H         4.663866   -3.672795   -3.829892 H        1 UNL1     0.0236
     103 H         3.694089   -3.485091   -2.401678 H        1 UNL1     0.0236
     104 H         1.022584   -2.810998   -1.537702 H        1 UNL1     0.2098
     105 H         0.302493   0.746079   -1.537092 H        1 UNL1     0.0234
     106 H         -0.51683   -0.833176   -1.376593 H        1 UNL1     0.0234
     107 H         -0.0   0.0   0.0 H        1 UNL1     0.0234
     108 H         3.94521   -0.183754   -1.089092 H        1 UNL1     0.2098
     109 H         0.943792   3.498386   -2.522679 H        1 UNL1     0.0234
     110 H         1.468608   1.805597   -2.254659 H        1 UNL1     0.0234
     111 H         -0.11077   2.318065   -1.773216 H        1 UNL1     0.0234
     112 H         0.315203   -0.342781   0.565564 H        1 UNL1     0.0342
     113 H         -1.076449   -1.180496   1.340017 H        1 UNL1     0.0342
     114 H         -1.31494   -0.213659   -0.118173 H        1 UNL1     0.0342
     115 H         3.254279   0.841649   3.240642 H        1 UNL1     0.0234
     116 H         3.973119   1.930407   2.049567 H        1 UNL1     0.0234
     117 H         2.612496   2.409265   3.085447 H        1 UNL1     0.0234
     118 H         3.901231   5.100966   -3.368198 H        1 UNL1     0.0309
     119 H         4.153995   5.371165   -5.120671 H        1 UNL1     0.0309
     120 H         2.951997   4.246023   -4.527869 H        1 UNL1     0.0309
     121 H         5.136749   3.756218   1.955073 H        1 UNL1     0.0524
     122 H         4.315282   5.062898   1.092151 H        1 UNL1     0.0524
     123 H         3.424301   4.113159   2.307836 H        1 UNL1     0.0524
@<TRIPOS>BOND
     1     1     2    1
     2     1    42    1
     3     2     3    2
     4     3     4    1
     5     4     5    2
     6     5     7    1
     7     6    75    1
     8     6    76    1
     9     6    77    1
    10     7     9   am
    11     9    10    1
    12    10    11    2
    13    10    43    1
    14    11    14    1
    15    11    15    1
    16    12    13   ar
    17    12    27   ar
    18    12    43    1
    19    13    14    1
    20    13    30   ar
    21    14    17    2
    22    15    16    1
    23    16    17    1
    24    16    18    1
    25    16    22    1
    26    18    19    1
    27    19    20    1
    28    20    21    1
    29    21    22    1
    30    23    24    1
    31    23    88    1
    32    23    89    1
    33    24    25    1
    34    24    26    1
    35    24    90    1
    36    25    91    1
    37    25    92    1
    38    25    93    1
    39    26    94    1
    40    26    95    1
    41    26    96    1
    42    27    28   ar
    43    28    29   ar
    44    29    30   ar
    45    29    31    1
    46    30    33    1
    47    31    32    1
    48    32    33    1
    49    32    35    1
    50    34    97    1
    51    34    98    1
    52    34    99    1
    53    35    61    1
    54    36    37    1
    55    36    60    1
    56    37    38    1
    57    38    39    1
    58    39    40    1
    59    40    41    1
    60    41    42    1
    61    45   100    1
    62    47   101    1
    63    47   102    1
    64    47   103    1
    65    48   104    1
    66    49   105    1
    67    49   106    1
    68    49   107    1
    69    50   108    1
    70    51    59    1
    71    52   109    1
    72    52   110    1
    73    52   111    1
    74    53    54    1
    75    54    55    2
    76    54    56    1
    77    56   112    1
    78    56   113    1
    79    56   114    1
    80    57   115    1
    81    57   116    1
    82    57   117    1
    83    58   118    1
    84    58   119    1
    85    58   120    1
    86    59   121    1
    87    59   122    1
    88    59   123    1
    89    60    61    2
    90     1    47    1
    91     1    62    1
    92     2    63    1
    93     3    64    1
    94     4    65    1
    95     5     6    1
    96     7     8    2
    97     9    78    1
    98    15    79    1
    99    18    80    1
   100    18    81    1
   101    19    82    1
   102    19    83    1
   103    20    23    1
   104    21    84    1
   105    21    85    1
   106    22    86    1
   107    22    87    1
   108    27    45    1
   109    28    34    1
   110    32    58    1
   111    33    46    2
   112    36    51    1
   113    36    66    1
   114    37    52    1
   115    37    67    1
   116    38    53    1
   117    38    68    1
   118    42    48    1
   119    42    72    1
   120    43    44    2
   121    60    73    1
   122    61    74    1
   123    39    69    1
   124    39    57    1
   125    40    70    1
   126    40    50    1
   127    41    71    1
   128    41    49    1
