@<TRIPOS>MOLECULE
*****
 123 128 0 0 0
SMALL
GASTEIGER

@<TRIPOS>ATOM
     1 C         0.462857   -0.048453   -4.779962 C.3        1 UNL1     0.0009
     2 C         0.93279   -1.362831   -6.000049 C.2        1 UNL1     -0.0787
     3 C         1.844651   -1.88302   -6.997023 C.2        1 UNL1     -0.0649
     4 C         1.784826   -3.382762   -7.78032 C.2        1 UNL1     -0.0542
     5 C         2.53056   -4.344121   -8.506092 C.2        1 UNL1     0.0115
     6 C         3.88445   -4.605511   -9.22162 C.3        1 UNL1     -0.0348
     7 C         1.95751   -5.838354   -8.632076 C.2        1 UNL1     0.2441
     8 O         1.408488   -6.257556   -9.641715 O.2        1 UNL1     -0.2702
     9 N         2.358869   -6.711536   -7.606105 N.am        1 UNL1     -0.2772
     10 C         1.484892   -6.640409   -6.545715 C.2        1 UNL1     0.1049
     11 C         1.683811   -5.651869   -5.692812 C.2        1 UNL1     0.0801
     12 C         -0.950022   -6.694105   -5.975061 C.ar        1 UNL1     0.0753
     13 C         -0.721025   -5.495267   -5.227428 C.ar        1 UNL1     0.0305
     14 C         0.629919   -5.009637   -4.955094 C.2        1 UNL1     0.0924
     15 N         2.729309   -4.816602   -5.56716 N.pl3        1 UNL1     -0.3170
     16 C         2.527666   -4.036461   -4.375114 C.3        1 UNL1     0.1275
     17 N         1.028844   -3.985797   -4.205736 N.2        1 UNL1     -0.2557
     18 C         3.058824   -4.856127   -3.203055 C.3        1 UNL1     0.0016
     19 C         4.509788   -5.216468   -3.479549 C.3        1 UNL1     0.0026
     20 N         5.273008   -3.987598   -3.648075 N.3        1 UNL1     -0.3018
     21 C         4.798596   -3.102264   -4.713666 C.3        1 UNL1     0.0026
     22 C         3.340827   -2.749272   -4.413329 C.3        1 UNL1     0.0016
     23 C         6.705666   -4.204867   -3.617598 C.3        1 UNL1     0.0012
     24 C         7.043745   -5.63269   -4.074525 C.3        1 UNL1     -0.0339
     25 C         8.234804   -5.644817   -5.046785 C.3        1 UNL1     -0.0615
     26 C         7.298168   -6.519153   -2.86778 C.3        1 UNL1     -0.0615
     27 C         -2.232517   -7.215693   -6.127602 C.ar        1 UNL1     0.1347
     28 C         -3.354555   -6.650985   -5.547785 C.ar        1 UNL1     0.0342
     29 C         -3.111647   -5.444591   -4.857297 C.ar        1 UNL1     0.1435
     30 C         -1.837483   -4.890794   -4.72678 C.ar        1 UNL1     0.0774
     31 O         -4.082918   -4.831981   -4.145716 O.3        1 UNL1     -0.4436
     32 C         -3.379358   -3.965839   -3.242569 C.3        1 UNL1     0.3143
     33 C         -2.033771   -3.72169   -3.895256 C.2        1 UNL1     0.2504
     34 C         -4.714218   -7.285911   -5.456761 C.3        1 UNL1     -0.0327
     35 O         -4.070909   -2.710905   -3.230267 O.2        1 UNL1     -0.4528
     36 C         -3.516789   -1.251231   0.229559 C.3        1 UNL1     0.0854
     37 C         -2.161848   -0.926596   0.968658 C.3        1 UNL1     0.0236
     38 C         -2.01888   0.584972   1.484862 C.3        1 UNL1     0.1131
     39 C         -2.295065   1.783696   0.490352 C.3        1 UNL1     0.0200
     40 C         -1.701358   1.74258   -1.067936 C.3        1 UNL1     0.0661
     41 C         -0.101921   1.394273   -1.513015 C.3        1 UNL1     0.0091
     42 C         0.563783   0.56734   -3.009151 C.3        1 UNL1     0.0661
     43 C         0.234159   -7.412781   -6.507491 C.2        1 UNL1     0.2131
     44 O         0.228141   -8.594282   -6.802036 O.2        1 UNL1     -0.2851
     45 O         -2.374523   -8.360816   -6.908605 O.3        1 UNL1     -0.5056
     46 O         -1.299425   -2.766817   -3.773575 O.2        1 UNL1     -0.2836
     47 C         -0.07658   1.205534   -5.519222 C.3        1 UNL1     -0.0566
     48 O         1.607458   1.592771   -3.250711 O.3        1 UNL1     -0.3909
     49 C         0.617155   0.798994   -0.323029 C.3        1 UNL1     -0.0577
     50 O         -2.599452   1.071809   -1.928875 O.3        1 UNL1     -0.3910
     51 O         -4.35143   -0.147477   -0.039758 O.3        1 UNL1     -0.3753
     52 C         -0.959036   -1.710835   0.349657 C.3        1 UNL1     -0.0564
     53 O         -0.906054   0.779473   2.472848 O.3        1 UNL1     -0.4608
     54 C         0.329991   1.297273   2.186485 C.2        1 UNL1     0.3042
     55 O         1.295975   0.703687   1.708606 O.2        1 UNL1     -0.2512
     56 C         0.441639   2.771038   2.455308 C.3        1 UNL1     0.0332
     57 C         -3.813254   2.242297   0.697623 C.3        1 UNL1     -0.0567
     58 C         -3.163502   -4.773067   -1.941293 C.3        1 UNL1     0.0210
     59 C         -5.553829   -0.104008   0.727193 C.3        1 UNL1     0.0372
     60 C         -3.37232   -2.001831   -1.047504 C.2        1 UNL1     -0.0208
     61 C         -3.957908   -1.814877   -2.231091 C.2        1 UNL1     0.0882
     62 H         -0.412184   -0.647587   -4.500581 H        1 UNL1     0.0365
     63 H         0.064482   -2.021732   -5.934019 H        1 UNL1     0.0576
     64 H         2.791064   -1.386183   -7.221887 H        1 UNL1     0.0615
     65 H         0.780509   -3.75321   -7.55761 H        1 UNL1     0.0622
     66 H         -4.051138   -1.923584   0.915459 H        1 UNL1     0.0645
     67 H         -2.237763   -1.477842   1.922034 H        1 UNL1     0.0362
     68 H         -2.846597   0.610795   2.209942 H        1 UNL1     0.0741
     69 H         -1.843429   2.680719   0.892574 H        1 UNL1     0.0359
     70 H         -1.803751   2.81074   -1.339248 H        1 UNL1     0.0600
     71 H         0.320691   2.417987   -1.532128 H        1 UNL1     0.0348
     72 H         -0.451339   0.898574   -3.27207 H        1 UNL1     0.0602
     73 H         -2.780479   -2.867046   -0.879049 H        1 UNL1     0.0628
     74 H         -4.531205   -0.927699   -2.502169 H        1 UNL1     0.1022
     75 H         3.765343   -5.383386   -10.013932 H        1 UNL1     0.0279
     76 H         4.309946   -3.77111   -9.774609 H        1 UNL1     0.0279
     77 H         4.628724   -5.078061   -8.564007 H        1 UNL1     0.0279
     78 H         3.277933   -6.438294   -7.264437 H        1 UNL1     0.1553
     79 H         3.638851   -5.001438   -5.948607 H        1 UNL1     0.1484
     80 H         2.960519   -4.2686   -2.282232 H        1 UNL1     0.0317
     81 H         2.464508   -5.764949   -3.059946 H        1 UNL1     0.0317
     82 H         4.606861   -5.866787   -4.361351 H        1 UNL1     0.0428
     83 H         4.868151   -5.80211   -2.632407 H        1 UNL1     0.0428
     84 H         5.338341   -2.15166   -4.76695 H        1 UNL1     0.0428
     85 H         4.941892   -3.546551   -5.708348 H        1 UNL1     0.0428
     86 H         3.069804   -2.000407   -5.134257 H        1 UNL1     0.0317
     87 H         3.273655   -2.216763   -3.456763 H        1 UNL1     0.0317
     88 H         7.173549   -3.495478   -4.312686 H        1 UNL1     0.0429
     89 H         7.11904   -3.99947   -2.621753 H        1 UNL1     0.0429
     90 H         6.172989   -6.062531   -4.583674 H        1 UNL1     0.0308
     91 H         8.98091   -6.388997   -4.752466 H        1 UNL1     0.0233
     92 H         7.900059   -5.855891   -6.065118 H        1 UNL1     0.0233
     93 H         8.749711   -4.677364   -5.088508 H        1 UNL1     0.0233
     94 H         6.642047   -7.395753   -2.898017 H        1 UNL1     0.0233
     95 H         8.333148   -6.872317   -2.875162 H        1 UNL1     0.0233
     96 H         7.114981   -5.982484   -1.932688 H        1 UNL1     0.0233
     97 H         -5.183268   -7.385894   -6.431043 H        1 UNL1     0.0280
     98 H         -4.670182   -8.300169   -5.038911 H        1 UNL1     0.0280
     99 H         -5.368276   -6.667828   -4.820149 H        1 UNL1     0.0280
     100 H         -1.804124   -8.398074   -7.656188 H        1 UNL1     0.2922
     101 H         -1.068034   0.99739   -5.920906 H        1 UNL1     0.0236
     102 H         0.604342   1.578507   -6.283564 H        1 UNL1     0.0236
     103 H         -0.225027   2.05767   -4.835102 H        1 UNL1     0.0236
     104 H         2.275764   1.199094   -3.845149 H        1 UNL1     0.2098
     105 H         1.598775   0.390529   -0.549721 H        1 UNL1     0.0234
     106 H         0.671311   1.450611   0.548975 H        1 UNL1     0.0234
     107 H         0.0   0.0   0.0 H        1 UNL1     0.0234
     108 H         -2.541713   0.118905   -1.722939 H        1 UNL1     0.2098
     109 H         -0.001107   -1.196074   0.508107 H        1 UNL1     0.0234
     110 H         -0.88529   -2.741859   0.712001 H        1 UNL1     0.0234
     111 H         -1.062576   -1.817811   -0.73836 H        1 UNL1     0.0234
     112 H         0.72312   2.938621   3.499353 H        1 UNL1     0.0342
     113 H         1.141754   3.258857   1.778763 H        1 UNL1     0.0342
     114 H         -0.546262   3.224685   2.295871 H        1 UNL1     0.0342
     115 H         -4.126402   2.972832   -0.060958 H        1 UNL1     0.0234
     116 H         -4.531813   1.420499   0.678426 H        1 UNL1     0.0234
     117 H         -3.976658   2.81594   1.626156 H        1 UNL1     0.0234
     118 H         -3.999205   -5.465869   -1.739722 H        1 UNL1     0.0309
     119 H         -2.223621   -5.334121   -1.934667 H        1 UNL1     0.0309
     120 H         -3.142803   -4.13626   -1.050139 H        1 UNL1     0.0309
     121 H         -5.55487   -0.970412   1.388025 H        1 UNL1     0.0524
     122 H         -5.61371   0.796688   1.360596 H        1 UNL1     0.0524
     123 H         -6.419269   -0.131896   0.071197 H        1 UNL1     0.0524
@<TRIPOS>BOND
     1     1     2    1
     2     1    42    1
     3     2     3    2
     4     3     4    1
     5     4     5    2
     6     5     7    1
     7     6    75    1
     8     6    76    1
     9     6    77    1
    10     7     9   am
    11     9    10    1
    12    10    11    2
    13    10    43    1
    14    11    14    1
    15    11    15    1
    16    12    13   ar
    17    12    27   ar
    18    12    43    1
    19    13    14    1
    20    13    30   ar
    21    14    17    2
    22    15    16    1
    23    16    17    1
    24    16    18    1
    25    16    22    1
    26    18    19    1
    27    19    20    1
    28    20    21    1
    29    21    22    1
    30    23    24    1
    31    23    88    1
    32    23    89    1
    33    24    25    1
    34    24    26    1
    35    24    90    1
    36    25    91    1
    37    25    92    1
    38    25    93    1
    39    26    94    1
    40    26    95    1
    41    26    96    1
    42    27    28   ar
    43    28    29   ar
    44    29    30   ar
    45    29    31    1
    46    30    33    1
    47    31    32    1
    48    32    33    1
    49    32    35    1
    50    34    97    1
    51    34    98    1
    52    34    99    1
    53    35    61    1
    54    36    37    1
    55    36    60    1
    56    37    38    1
    57    38    39    1
    58    39    40    1
    59    40    41    1
    60    41    42    1
    61    45   100    1
    62    47   101    1
    63    47   102    1
    64    47   103    1
    65    48   104    1
    66    49   105    1
    67    49   106    1
    68    49   107    1
    69    50   108    1
    70    51    59    1
    71    52   109    1
    72    52   110    1
    73    52   111    1
    74    53    54    1
    75    54    55    2
    76    54    56    1
    77    56   112    1
    78    56   113    1
    79    56   114    1
    80    57   115    1
    81    57   116    1
    82    57   117    1
    83    58   118    1
    84    58   119    1
    85    58   120    1
    86    59   121    1
    87    59   122    1
    88    59   123    1
    89    60    61    2
    90     1    47    1
    91     1    62    1
    92     2    63    1
    93     3    64    1
    94     4    65    1
    95     5     6    1
    96     7     8    2
    97     9    78    1
    98    15    79    1
    99    18    80    1
   100    18    81    1
   101    19    82    1
   102    19    83    1
   103    20    23    1
   104    21    84    1
   105    21    85    1
   106    22    86    1
   107    22    87    1
   108    27    45    1
   109    28    34    1
   110    32    58    1
   111    33    46    2
   112    36    51    1
   113    36    66    1
   114    37    52    1
   115    37    67    1
   116    38    53    1
   117    38    68    1
   118    42    48    1
   119    42    72    1
   120    43    44    2
   121    60    73    1
   122    61    74    1
   123    39    69    1
   124    39    57    1
   125    40    70    1
   126    40    50    1
   127    41    71    1
   128    41    49    1
