@<TRIPOS>MOLECULE
*****
 123 128 0 0 0
SMALL
GASTEIGER

@<TRIPOS>ATOM
     1 C         5.166754   1.759485   0.456218 C.3        1 UNL1     0.0009
     2 C         6.596198   2.567928   -0.4041 C.2        1 UNL1     -0.0787
     3 C         7.87387   2.471886   -1.078175 C.2        1 UNL1     -0.0649
     4 C         8.743846   3.708282   -1.840293 C.2        1 UNL1     -0.0542
     5 C         9.757092   4.002368   -2.785769 C.2        1 UNL1     0.0115
     6 C         10.880835   3.378632   -3.658396 C.3        1 UNL1     -0.0348
     7 C         9.845457   5.485421   -3.393828 C.2        1 UNL1     0.2441
     8 O         10.670149   6.308966   -3.022098 O.2        1 UNL1     -0.2702
     9 N         9.087145   5.690123   -4.55968 N.am        1 UNL1     -0.2772
     10 C         7.805743   6.074429   -4.237747 C.2        1 UNL1     0.1049
     11 C         6.963851   5.101509   -3.939645 C.2        1 UNL1     0.0801
     12 C         6.513417   7.679382   -2.819525 C.ar        1 UNL1     0.0753
     13 C         5.759588   6.550234   -2.366342 C.ar        1 UNL1     0.0305
     14 C         5.874904   5.244353   -3.011655 C.2        1 UNL1     0.0924
     15 N         7.088098   3.772677   -4.098694 N.pl3        1 UNL1     -0.3170
     16 C         5.821539   3.171161   -3.775799 C.3        1 UNL1     0.1275
     17 N         5.18967   4.12575   -2.792323 N.2        1 UNL1     -0.2557
     18 C         4.960289   3.2277   -5.033875 C.3        1 UNL1     0.0016
     19 C         5.709113   2.544395   -6.166988 C.3        1 UNL1     0.0026
     20 N         5.984558   1.167089   -5.782039 N.3        1 UNL1     -0.3018
     21 C         6.756363   1.009031   -4.547655 C.3        1 UNL1     0.0026
     22 C         5.983612   1.698711   -3.422003 C.3        1 UNL1     0.0016
     23 C         6.423412   0.347727   -6.894107 C.3        1 UNL1     0.0012
     24 C         7.910905   -0.009003   -6.746243 C.3        1 UNL1     -0.0339
     25 C         8.095825   -1.435767   -6.203836 C.3        1 UNL1     -0.0615
     26 C         8.626577   0.182086   -8.072169 C.3        1 UNL1     -0.0615
     27 C         6.309756   8.947012   -2.279382 C.ar        1 UNL1     0.1347
     28 C         5.356487   9.215256   -1.313269 C.ar        1 UNL1     0.0342
     29 C         4.660251   8.079698   -0.847514 C.ar        1 UNL1     0.1435
     30 C         4.878947   6.797787   -1.353572 C.ar        1 UNL1     0.0774
     31 O         3.624665   8.191729   0.012729 O.3        1 UNL1     -0.4436
     32 C         2.904551   6.95737   -0.123898 C.3        1 UNL1     0.3143
     33 C         3.916325   5.965955   -0.662065 C.2        1 UNL1     0.2504
     34 C         4.909806   10.580747   -0.870537 C.3        1 UNL1     -0.0327
     35 O         2.553456   6.520804   1.194964 O.2        1 UNL1     -0.4528
     36 C         -0.688233   4.581851   0.820805 C.3        1 UNL1     0.0854
     37 C         -0.996897   3.32007   -0.073711 C.3        1 UNL1     0.0236
     38 C         -1.589718   2.058338   0.718968 C.3        1 UNL1     0.1131
     39 C         -0.854348   1.529714   2.01591 C.3        1 UNL1     0.0200
     40 C         0.807369   1.387532   2.046241 C.3        1 UNL1     0.0661
     41 C         1.760573   0.619864   0.871636 C.3        1 UNL1     0.0091
     42 C         3.46368   0.985479   0.296175 C.3        1 UNL1     0.0661
     43 C         7.45648   7.472852   -3.946573 C.2        1 UNL1     0.2131
     44 O         7.84982   8.371259   -4.668298 O.2        1 UNL1     -0.2851
     45 O         7.116905   9.983447   -2.743873 O.3        1 UNL1     -0.5056
     46 O         3.935595   4.762542   -0.53062 O.2        1 UNL1     -0.2836
     47 C         5.573435   1.331752   1.892059 C.3        1 UNL1     -0.0566
     48 O         3.91561   -0.424669   0.375918 O.3        1 UNL1     -0.3909
     49 C         0.918714   0.384782   -0.362667 C.3        1 UNL1     -0.0577
     50 O         1.407688   2.606856   2.434299 O.3        1 UNL1     -0.3910
     51 O         -0.80278   4.392847   2.213137 O.3        1 UNL1     -0.3753
     52 C         0.040271   3.160933   -1.232981 C.3        1 UNL1     -0.0564
     53 O         -2.196139   1.017552   -0.17621 O.3        1 UNL1     -0.4608
     54 C         -2.42568   -0.289442   0.165852 C.2        1 UNL1     0.3042
     55 O         -1.856442   -1.287614   -0.273989 O.2        1 UNL1     -0.2512
     56 C         -3.459802   -0.456582   1.242592 C.3        1 UNL1     0.0332
     57 C         -1.568402   2.198096   3.281441 C.3        1 UNL1     -0.0567
     58 C         1.821752   7.199584   -1.20112 C.3        1 UNL1     0.0210
     59 C         -1.113469   5.571712   2.954497 C.3        1 UNL1     0.0372
     60 C         0.637948   5.213446   0.581034 C.2        1 UNL1     -0.0208
     61 C         1.555711   5.651086   1.444126 C.2        1 UNL1     0.0882
     62 H         4.689442   2.742759   0.545977 H        1 UNL1     0.0365
     63 H         6.328533   3.621261   -0.297731 H        1 UNL1     0.0576
     64 H         8.332001   1.505809   -1.301601 H        1 UNL1     0.0615
     65 H         8.257219   4.62293   -1.490872 H        1 UNL1     0.0622
     66 H         -1.436409   5.326677   0.515006 H        1 UNL1     0.0645
     67 H         -1.867072   3.627292   -0.679491 H        1 UNL1     0.0362
     68 H         -2.535327   2.493549   1.076651 H        1 UNL1     0.0741
     69 H         -1.182545   0.518084   2.214153 H        1 UNL1     0.0359
     70 H         0.926272   0.728015   2.927127 H        1 UNL1     0.0600
     71 H         1.809018   -0.400926   1.298949 H        1 UNL1     0.0348
     72 H         3.363273   1.474125   1.276205 H        1 UNL1     0.0602
     73 H         0.748617   5.410238   -0.456402 H        1 UNL1     0.0628
     74 H         1.545636   5.441103   2.514192 H        1 UNL1     0.1022
     75 H         10.909795   2.270104   -3.526633 H        1 UNL1     0.0279
     76 H         10.773329   3.483765   -4.735642 H        1 UNL1     0.0279
     77 H         11.888374   3.66339   -3.321532 H        1 UNL1     0.0279
     78 H         9.023435   4.8197   -5.083496 H        1 UNL1     0.1553
     79 H         7.750144   3.345606   -4.720175 H        1 UNL1     0.1484
     80 H         4.001295   2.734971   -4.833086 H        1 UNL1     0.0317
     81 H         4.729818   4.263815   -5.30406 H        1 UNL1     0.0317
     82 H         6.637053   3.077394   -6.421451 H        1 UNL1     0.0428
     83 H         5.077989   2.597687   -7.054621 H        1 UNL1     0.0428
     84 H         6.880811   -0.03347   -4.238599 H        1 UNL1     0.0428
     85 H         7.785008   1.379057   -4.658502 H        1 UNL1     0.0428
     86 H         6.506509   1.449993   -2.51718 H        1 UNL1     0.0317
     87 H         5.005974   1.219197   -3.290146 H        1 UNL1     0.0317
     88 H         5.838651   -0.581399   -6.885419 H        1 UNL1     0.0429
     89 H         6.228233   0.8416   -7.854716 H        1 UNL1     0.0429
     90 H         8.381106   0.693645   -6.048095 H        1 UNL1     0.0308
     91 H         7.604262   -2.172368   -6.846399 H        1 UNL1     0.0233
     92 H         9.156763   -1.68314   -6.121216 H        1 UNL1     0.0233
     93 H         7.674073   -1.558437   -5.198893 H        1 UNL1     0.0233
     94 H         9.625437   -0.265523   -8.030184 H        1 UNL1     0.0233
     95 H         8.068917   -0.312448   -8.872427 H        1 UNL1     0.0233
     96 H         8.733024   1.24213   -8.319038 H        1 UNL1     0.0233
     97 H         4.115124   10.529994   -0.132205 H        1 UNL1     0.0280
     98 H         5.722122   11.149252   -0.399155 H        1 UNL1     0.0280
     99 H         4.538062   11.147337   -1.739948 H        1 UNL1     0.0280
     100 H         6.646481   10.737583   -3.053068 H        1 UNL1     0.2922
     101 H         4.711705   0.908138   2.407451 H        1 UNL1     0.0236
     102 H         6.037477   2.13503   2.463367 H        1 UNL1     0.0236
     103 H         6.322112   0.522033   1.886548 H        1 UNL1     0.0236
     104 H         4.335782   -0.550809   1.249139 H        1 UNL1     0.2098
     105 H         0.700486   1.282797   -0.935168 H        1 UNL1     0.0234
     106 H         1.285353   -0.402941   -1.02069 H        1 UNL1     0.0234
     107 H         0.0   -0.0   0.0 H        1 UNL1     0.0234
     108 H         1.218226   3.259599   1.733015 H        1 UNL1     0.2098
     109 H         1.069237   3.062166   -0.859905 H        1 UNL1     0.0234
     110 H         -0.188254   2.325314   -1.903249 H        1 UNL1     0.0234
     111 H         0.04656   4.038093   -1.89366 H        1 UNL1     0.0234
     112 H         -3.579434   -1.517529   1.48223 H        1 UNL1     0.0342
     113 H         -3.219691   0.120694   2.134188 H        1 UNL1     0.0342
     114 H         -4.420095   -0.088241   0.856164 H        1 UNL1     0.0342
     115 H         -2.639847   1.95786   3.31993 H        1 UNL1     0.0234
     116 H         -1.132721   1.910346   4.240311 H        1 UNL1     0.0234
     117 H         -1.5986   3.300438   3.238189 H        1 UNL1     0.0234
     118 H         0.920587   7.680726   -0.7823 H        1 UNL1     0.0309
     119 H         2.183071   7.791625   -2.047961 H        1 UNL1     0.0309
     120 H         1.43556   6.266679   -1.62615 H        1 UNL1     0.0309
     121 H         -0.277537   6.261628   2.842288 H        1 UNL1     0.0524
     122 H         -2.01591   6.079072   2.57473 H        1 UNL1     0.0524
     123 H         -1.260593   5.328487   4.002967 H        1 UNL1     0.0524
@<TRIPOS>BOND
     1     1     2    1
     2     1    42    1
     3     2     3    2
     4     3     4    1
     5     4     5    2
     6     5     7    1
     7     6    75    1
     8     6    76    1
     9     6    77    1
    10     7     9   am
    11     9    10    1
    12    10    11    2
    13    10    43    1
    14    11    14    1
    15    11    15    1
    16    12    13   ar
    17    12    27   ar
    18    12    43    1
    19    13    14    1
    20    13    30   ar
    21    14    17    2
    22    15    16    1
    23    16    17    1
    24    16    18    1
    25    16    22    1
    26    18    19    1
    27    19    20    1
    28    20    21    1
    29    21    22    1
    30    23    24    1
    31    23    88    1
    32    23    89    1
    33    24    25    1
    34    24    26    1
    35    24    90    1
    36    25    91    1
    37    25    92    1
    38    25    93    1
    39    26    94    1
    40    26    95    1
    41    26    96    1
    42    27    28   ar
    43    28    29   ar
    44    29    30   ar
    45    29    31    1
    46    30    33    1
    47    31    32    1
    48    32    33    1
    49    32    35    1
    50    34    97    1
    51    34    98    1
    52    34    99    1
    53    35    61    1
    54    36    37    1
    55    36    60    1
    56    37    38    1
    57    38    39    1
    58    39    40    1
    59    40    41    1
    60    41    42    1
    61    45   100    1
    62    47   101    1
    63    47   102    1
    64    47   103    1
    65    48   104    1
    66    49   105    1
    67    49   106    1
    68    49   107    1
    69    50   108    1
    70    51    59    1
    71    52   109    1
    72    52   110    1
    73    52   111    1
    74    53    54    1
    75    54    55    2
    76    54    56    1
    77    56   112    1
    78    56   113    1
    79    56   114    1
    80    57   115    1
    81    57   116    1
    82    57   117    1
    83    58   118    1
    84    58   119    1
    85    58   120    1
    86    59   121    1
    87    59   122    1
    88    59   123    1
    89    60    61    2
    90     1    47    1
    91     1    62    1
    92     2    63    1
    93     3    64    1
    94     4    65    1
    95     5     6    1
    96     7     8    2
    97     9    78    1
    98    15    79    1
    99    18    80    1
   100    18    81    1
   101    19    82    1
   102    19    83    1
   103    20    23    1
   104    21    84    1
   105    21    85    1
   106    22    86    1
   107    22    87    1
   108    27    45    1
   109    28    34    1
   110    32    58    1
   111    33    46    2
   112    36    51    1
   113    36    66    1
   114    37    52    1
   115    37    67    1
   116    38    53    1
   117    38    68    1
   118    42    48    1
   119    42    72    1
   120    43    44    2
   121    60    73    1
   122    61    74    1
   123    39    69    1
   124    39    57    1
   125    40    70    1
   126    40    50    1
   127    41    71    1
   128    41    49    1
