@<TRIPOS>MOLECULE
*****
 123 128 0 0 0
SMALL
GASTEIGER

@<TRIPOS>ATOM
     1 C         -0.083824   -3.623495   3.371797 C.3        1 UNL1     0.0009
     2 C         1.1934   -4.542796   4.35191 C.2        1 UNL1     -0.0787
     3 C         1.878071   -5.775767   4.679102 C.2        1 UNL1     -0.0649
     4 C         3.205471   -5.987363   5.708466 C.2        1 UNL1     -0.0542
     5 C         4.280435   -6.842141   6.056153 C.2        1 UNL1     0.0115
     6 C         4.884215   -8.256077   5.833539 C.3        1 UNL1     -0.0348
     7 C         5.502977   -6.245558   6.908484 C.2        1 UNL1     0.2441
     8 O         5.63514   -6.440836   8.10887 O.2        1 UNL1     -0.2702
     9 N         6.548323   -5.70469   6.139806 N.am        1 UNL1     -0.2772
     10 C         6.305945   -4.378341   5.865264 C.2        1 UNL1     0.1049
     11 C         5.511746   -4.132042   4.8392 C.2        1 UNL1     0.0801
     12 C         5.64946   -2.21775   6.941464 C.ar        1 UNL1     0.0753
     13 C         4.656098   -2.100064   5.917749 C.ar        1 UNL1     0.0305
     14 C         4.643493   -2.988835   4.758018 C.2        1 UNL1     0.0924
     15 N         5.059713   -4.957024   3.879201 N.pl3        1 UNL1     -0.3170
     16 C         4.368799   -4.157735   2.902457 C.3        1 UNL1     0.1275
     17 N         3.868793   -2.96298   3.677232 N.2        1 UNL1     -0.2557
     18 C         5.417487   -3.62403   1.931315 C.3        1 UNL1     0.0016
     19 C         6.185532   -4.800438   1.350144 C.3        1 UNL1     0.0026
     20 N         5.246152   -5.683934   0.673366 N.3        1 UNL1     -0.3018
     21 C         4.162874   -6.199984   1.512751 C.3        1 UNL1     0.0026
     22 C         3.401849   -5.001534   2.08236 C.3        1 UNL1     0.0016
     23 C         5.901448   -6.668828   -0.16402 C.3        1 UNL1     0.0012
     24 C         6.658657   -7.690897   0.6984 C.3        1 UNL1     -0.0339
     25 C         5.71717   -8.782252   1.233755 C.3        1 UNL1     -0.0615
     26 C         7.811999   -8.285509   -0.090915 C.3        1 UNL1     -0.0615
     27 C         5.72845   -1.293149   7.980209 C.ar        1 UNL1     0.1347
     28 C         4.897708   -0.19128   8.079222 C.ar        1 UNL1     0.0342
     29 C         3.896284   -0.122906   7.087437 C.ar        1 UNL1     0.1435
     30 C         3.782209   -1.061692   6.061334 C.ar        1 UNL1     0.0774
     31 O         3.079417   0.948032   6.98338 O.3        1 UNL1     -0.4436
     32 C         2.563047   0.881646   5.645535 C.3        1 UNL1     0.3143
     33 C         2.691981   -0.573507   5.242893 C.2        1 UNL1     0.2504
     34 C         5.082209   0.970782   9.014994 C.3        1 UNL1     -0.0327
     35 O         1.161723   1.172738   5.714872 O.2        1 UNL1     -0.4528
     36 C         0.27278   2.804381   2.404946 C.3        1 UNL1     0.0854
     37 C         0.456617   2.250195   0.939816 C.3        1 UNL1     0.0236
     38 C         -0.880605   2.222242   0.055056 C.3        1 UNL1     0.1131
     39 C         -2.19183   1.55382   0.634859 C.3        1 UNL1     0.0200
     40 C         -2.111108   0.09648   1.442375 C.3        1 UNL1     0.0661
     41 C         -1.323629   -1.301837   0.892651 C.3        1 UNL1     0.0091
     42 C         -0.471652   -2.632267   1.825118 C.3        1 UNL1     0.0661
     43 C         6.649546   -3.306411   6.811445 C.2        1 UNL1     0.2131
     44 O         7.73779   -3.289393   7.357497 O.2        1 UNL1     -0.2851
     45 O         6.695091   -1.505734   8.96095 O.3        1 UNL1     -0.5056
     46 O         2.029393   -1.195564   4.442971 O.2        1 UNL1     -0.2836
     47 C         -1.505958   -3.940849   3.907337 C.3        1 UNL1     -0.0566
     48 O         -1.137868   -3.732601   1.087191 O.3        1 UNL1     -0.3909
     49 C         -0.426835   -0.932555   -0.267903 C.3        1 UNL1     -0.0577
     50 O         -1.836299   0.298136   2.814067 O.3        1 UNL1     -0.3910
     51 O         -1.056157   3.039709   2.81235 O.3        1 UNL1     -0.3753
     52 C         1.516546   1.102149   0.880736 C.3        1 UNL1     -0.0564
     53 O         -0.626356   2.032115   -1.411755 O.3        1 UNL1     -0.4608
     54 C         -1.564684   1.66415   -2.340233 C.2        1 UNL1     0.3042
     55 O         -1.844774   0.523772   -2.707557 O.2        1 UNL1     -0.2512
     56 C         -2.345285   2.820488   -2.89724 C.3        1 UNL1     0.0332
     57 C         -3.080137   2.716052   1.28162 C.3        1 UNL1     -0.0567
     58 C         3.513481   1.728366   4.767315 C.3        1 UNL1     0.0210
     59 C         -1.916337   1.903825   2.736699 C.3        1 UNL1     0.0372
     60 C         0.910095   1.985217   3.471698 C.2        1 UNL1     -0.0208
     61 C         0.441656   1.594762   4.657807 C.2        1 UNL1     0.0882
     62 H         0.235387   -2.695866   3.862022 H        1 UNL1     0.0365
     63 H         1.551593   -3.750886   5.013005 H        1 UNL1     0.0576
     64 H         1.68288   -6.701271   4.132795 H        1 UNL1     0.0615
     65 H         3.262882   -5.043343   6.257112 H        1 UNL1     0.0622
     66 H         0.804948   3.766068   2.40509 H        1 UNL1     0.0645
     67 H         1.041932   3.033928   0.42822 H        1 UNL1     0.0362
     68 H         -1.096569   3.300757   0.013981 H        1 UNL1     0.0741
     69 H         -2.862112   1.333643   -0.185294 H        1 UNL1     0.0359
     70 H         -3.178083   -0.19649   1.414194 H        1 UNL1     0.0600
     71 H         -2.161544   -1.802251   0.368779 H        1 UNL1     0.0348
     72 H         -1.125819   -2.125439   2.549346 H        1 UNL1     0.0602
     73 H         1.928423   1.817946   3.222144 H        1 UNL1     0.0628
     74 H         -0.601099   1.676689   4.966331 H        1 UNL1     0.1022
     75 H         5.760805   -8.20385   5.143686 H        1 UNL1     0.0279
     76 H         5.3036   -8.747752   6.708434 H        1 UNL1     0.0279
     77 H         4.209994   -8.923632   5.277214 H        1 UNL1     0.0279
     78 H         6.608171   -6.195689   5.25019 H        1 UNL1     0.1553
     79 H         5.483198   -5.839541   3.658392 H        1 UNL1     0.1484
     80 H         4.915993   -3.045787   1.145882 H        1 UNL1     0.0317
     81 H         6.104594   -2.936644   2.436325 H        1 UNL1     0.0317
     82 H         6.749609   -5.340896   2.124506 H        1 UNL1     0.0428
     83 H         6.929105   -4.397277   0.661951 H        1 UNL1     0.0428
     84 H         3.427497   -6.795476   0.962823 H        1 UNL1     0.0428
     85 H         4.536161   -6.885101   2.286436 H        1 UNL1     0.0428
     86 H         2.542802   -5.413392   2.578747 H        1 UNL1     0.0317
     87 H         2.965384   -4.412612   1.266415 H        1 UNL1     0.0317
     88 H         5.128911   -7.198708   -0.736478 H        1 UNL1     0.0429
     89 H         6.570512   -6.19177   -0.891717 H        1 UNL1     0.0429
     90 H         7.114393   -7.173811   1.551125 H        1 UNL1     0.0308
     91 H         5.027857   -9.128548   0.457849 H        1 UNL1     0.0233
     92 H         6.288112   -9.633406   1.612133 H        1 UNL1     0.0233
     93 H         5.102638   -8.429782   2.070982 H        1 UNL1     0.0233
     94 H         7.659305   -9.361167   -0.230483 H        1 UNL1     0.0233
     95 H         7.866439   -7.82164   -1.079766 H        1 UNL1     0.0233
     96 H         8.765997   -8.135623   0.4223 H        1 UNL1     0.0233
     97 H         5.713742   0.716395   9.860975 H        1 UNL1     0.0280
     98 H         5.567147   1.824581   8.523955 H        1 UNL1     0.0280
     99 H         4.101259   1.293356   9.400712 H        1 UNL1     0.0280
     100 H         6.594981   -0.974219   9.731074 H        1 UNL1     0.2922
     101 H         -1.866004   -3.107778   4.510673 H        1 UNL1     0.0236
     102 H         -1.560702   -4.887757   4.44339 H        1 UNL1     0.0236
     103 H         -2.243488   -4.035909   3.092962 H        1 UNL1     0.0236
     104 H         -0.522445   -4.036122   0.391419 H        1 UNL1     0.2098
     105 H         0.386335   -1.631425   -0.447199 H        1 UNL1     0.0234
     106 H         -0.95181   -0.717029   -1.198428 H        1 UNL1     0.0234
     107 H         0.0   0.0   0.0 H        1 UNL1     0.0234
     108 H         -2.35471   -0.361597   3.313837 H        1 UNL1     0.2098
     109 H         2.371743   1.290987   1.544581 H        1 UNL1     0.0234
     110 H         1.094544   0.115131   1.098571 H        1 UNL1     0.0234
     111 H         1.940368   0.994046   -0.126555 H        1 UNL1     0.0234
     112 H         -1.663898   3.541621   -3.358788 H        1 UNL1     0.0342
     113 H         -3.108696   2.497096   -3.60326 H        1 UNL1     0.0342
     114 H         -2.854436   3.323931   -2.063888 H        1 UNL1     0.0342
     115 H         -4.096104   2.734143   0.863682 H        1 UNL1     0.0234
     116 H         -3.172909   2.651768   2.367581 H        1 UNL1     0.0234
     117 H         -2.727858   3.731054   1.029403 H        1 UNL1     0.0234
     118 H         3.12685   1.854998   3.740919 H        1 UNL1     0.0309
     119 H         3.728334   2.713592   5.193192 H        1 UNL1     0.0309
     120 H         4.485001   1.246076   4.61353 H        1 UNL1     0.0309
     121 H         -2.412048   1.800812   3.701591 H        1 UNL1     0.0524
     122 H         -2.70118   2.023609   1.971383 H        1 UNL1     0.0524
     123 H         -1.340171   1.010218   2.514001 H        1 UNL1     0.0524
@<TRIPOS>BOND
     1     1     2    1
     2     1    42    1
     3     2     3    2
     4     3     4    1
     5     4     5    2
     6     5     7    1
     7     6    75    1
     8     6    76    1
     9     6    77    1
    10     7     9   am
    11     9    10    1
    12    10    11    2
    13    10    43    1
    14    11    14    1
    15    11    15    1
    16    12    13   ar
    17    12    27   ar
    18    12    43    1
    19    13    14    1
    20    13    30   ar
    21    14    17    2
    22    15    16    1
    23    16    17    1
    24    16    18    1
    25    16    22    1
    26    18    19    1
    27    19    20    1
    28    20    21    1
    29    21    22    1
    30    23    24    1
    31    23    88    1
    32    23    89    1
    33    24    25    1
    34    24    26    1
    35    24    90    1
    36    25    91    1
    37    25    92    1
    38    25    93    1
    39    26    94    1
    40    26    95    1
    41    26    96    1
    42    27    28   ar
    43    28    29   ar
    44    29    30   ar
    45    29    31    1
    46    30    33    1
    47    31    32    1
    48    32    33    1
    49    32    35    1
    50    34    97    1
    51    34    98    1
    52    34    99    1
    53    35    61    1
    54    36    37    1
    55    36    60    1
    56    37    38    1
    57    38    39    1
    58    39    40    1
    59    40    41    1
    60    41    42    1
    61    45   100    1
    62    47   101    1
    63    47   102    1
    64    47   103    1
    65    48   104    1
    66    49   105    1
    67    49   106    1
    68    49   107    1
    69    50   108    1
    70    51    59    1
    71    52   109    1
    72    52   110    1
    73    52   111    1
    74    53    54    1
    75    54    55    2
    76    54    56    1
    77    56   112    1
    78    56   113    1
    79    56   114    1
    80    57   115    1
    81    57   116    1
    82    57   117    1
    83    58   118    1
    84    58   119    1
    85    58   120    1
    86    59   121    1
    87    59   122    1
    88    59   123    1
    89    60    61    2
    90     1    47    1
    91     1    62    1
    92     2    63    1
    93     3    64    1
    94     4    65    1
    95     5     6    1
    96     7     8    2
    97     9    78    1
    98    15    79    1
    99    18    80    1
   100    18    81    1
   101    19    82    1
   102    19    83    1
   103    20    23    1
   104    21    84    1
   105    21    85    1
   106    22    86    1
   107    22    87    1
   108    27    45    1
   109    28    34    1
   110    32    58    1
   111    33    46    2
   112    36    51    1
   113    36    66    1
   114    37    52    1
   115    37    67    1
   116    38    53    1
   117    38    68    1
   118    42    48    1
   119    42    72    1
   120    43    44    2
   121    60    73    1
   122    61    74    1
   123    39    69    1
   124    39    57    1
   125    40    70    1
   126    40    50    1
   127    41    71    1
   128    41    49    1
