@<TRIPOS>MOLECULE
*****
 123 128 0 0 0
SMALL
GASTEIGER

@<TRIPOS>ATOM
     1 C         5.178902   1.712718   0.48916 C.3        1 UNL1     0.0009
     2 C         6.62479   2.4991   -0.364097 C.2        1 UNL1     -0.0787
     3 C         7.906678   2.383974   -1.027087 C.2        1 UNL1     -0.0649
     4 C         8.797433   3.605462   -1.789241 C.2        1 UNL1     -0.0542
     5 C         9.821759   3.881944   -2.728067 C.2        1 UNL1     0.0115
     6 C         10.945092   3.23981   -3.587782 C.3        1 UNL1     -0.0348
     7 C         9.932655   5.360214   -3.344026 C.2        1 UNL1     0.2441
     8 O         10.764003   6.176152   -2.970351 O.2        1 UNL1     -0.2702
     9 N         9.18634   5.566938   -4.51724 N.am        1 UNL1     -0.2772
     10 C         7.907008   5.968257   -4.208088 C.2        1 UNL1     0.1049
     11 C         7.051237   5.007135   -3.911234 C.2        1 UNL1     0.0801
     12 C         6.622306   7.596751   -2.809918 C.ar        1 UNL1     0.0753
     13 C         5.851473   6.479296   -2.356355 C.ar        1 UNL1     0.0305
     14 C         5.956542   5.168337   -2.993066 C.2        1 UNL1     0.0924
     15 N         7.161005   3.676008   -4.061498 N.pl3        1 UNL1     -0.3170
     16 C         5.884815   3.091422   -3.745507 C.3        1 UNL1     0.1275
     17 N         5.256327   4.059227   -2.772841 N.2        1 UNL1     -0.2557
     18 C         5.034566   3.150664   -5.01092 C.3        1 UNL1     0.0016
     19 C         5.784433   2.451849   -6.133839 C.3        1 UNL1     0.0026
     20 N         6.04038   1.073694   -5.738608 N.3        1 UNL1     -0.3018
     21 C         6.800181   0.913858   -4.497027 C.3        1 UNL1     0.0026
     22 C         6.026527   1.619286   -3.381803 C.3        1 UNL1     0.0016
     23 C         6.478524   0.24262   -6.842234 C.3        1 UNL1     0.0012
     24 C         5.322213   -0.001853   -7.824544 C.3        1 UNL1     -0.0339
     25 C         5.369529   0.982238   -9.004961 C.3        1 UNL1     -0.0615
     26 C         5.337885   -1.444682   -8.298653 C.3        1 UNL1     -0.0615
     27 C         6.429303   8.869881   -2.278873 C.ar        1 UNL1     0.1347
     28 C         5.471449   9.155096   -1.322203 C.ar        1 UNL1     0.0342
     29 C         4.758025   8.030625   -0.855559 C.ar        1 UNL1     0.1435
     30 C         4.965615   6.743239   -1.352312 C.ar        1 UNL1     0.0774
     31 O         3.716872   8.159983   -0.004516 O.3        1 UNL1     -0.4436
     32 C         2.983305   6.933428   -0.139843 C.3        1 UNL1     0.3143
     33 C         3.987597   5.926955   -0.663888 C.2        1 UNL1     0.2504
     34 C         5.037406   10.52837   -0.891131 C.3        1 UNL1     -0.0327
     35 O         2.616332   6.508874   1.178617 O.2        1 UNL1     -0.4528
     36 C         -0.644973   4.606161   0.789181 C.3        1 UNL1     0.0854
     37 C         -0.961288   3.342828   -0.100459 C.3        1 UNL1     0.0236
     38 C         -1.575465   2.092913   0.694678 C.3        1 UNL1     0.1131
     39 C         -0.856999   1.563346   2.000678 C.3        1 UNL1     0.0200
     40 C         0.802612   1.401727   2.045481 C.3        1 UNL1     0.0661
     41 C         1.756176   0.615896   0.883243 C.3        1 UNL1     0.0091
     42 C         3.468127   0.957947   0.31966 C.3        1 UNL1     0.0661
     43 C         7.571997   7.372412   -3.92796 C.2        1 UNL1     0.2131
     44 O         7.981827   8.261811   -4.651663 O.2        1 UNL1     -0.2851
     45 O         7.252442   9.893935   -2.742764 O.3        1 UNL1     -0.5056
     46 O         3.991522   4.724199   -0.525267 O.2        1 UNL1     -0.2836
     47 C         5.568779   1.288739   1.930763 C.3        1 UNL1     -0.0566
     48 O         3.902636   -0.456943   0.411342 O.3        1 UNL1     -0.3909
     49 C         0.921663   0.383455   -0.356537 C.3        1 UNL1     -0.0577
     50 O         1.414172   2.616156   2.43133 O.3        1 UNL1     -0.3910
     51 O         -0.773084   4.426789   2.181604 O.3        1 UNL1     -0.3753
     52 C         0.083323   3.164575   -1.250225 C.3        1 UNL1     -0.0564
     53 O         -2.18688   1.05407   -0.199358 O.3        1 UNL1     -0.4608
     54 C         -2.434684   -0.248069   0.148431 C.2        1 UNL1     0.3042
     55 O         -1.874782   -1.255587   -0.281983 O.2        1 UNL1     -0.2512
     56 C         -3.477945   -0.39648   1.219083 C.3        1 UNL1     0.0332
     57 C         -1.573355   2.247613   3.25638 C.3        1 UNL1     -0.0567
     58 C         1.91226   7.182019   -1.227315 C.3        1 UNL1     0.0210
     59 C         -1.075794   5.613621   2.913495 C.3        1 UNL1     0.0372
     60 C         0.690514   5.220613   0.556623 C.2        1 UNL1     -0.0208
     61 C         1.606346   5.652496   1.424652 C.2        1 UNL1     0.0882
     62 H         4.712571   2.702077   0.569255 H        1 UNL1     0.0365
     63 H         6.36878   3.556134   -0.26608 H        1 UNL1     0.0576
     64 H         8.355123   1.411244   -1.241101 H        1 UNL1     0.0615
     65 H         8.31886   4.527853   -1.449172 H        1 UNL1     0.0622
     66 H         -1.381748   5.357946   0.472907 H        1 UNL1     0.0645
     67 H         -1.822797   3.656708   -0.715146 H        1 UNL1     0.0362
     68 H         -2.518726   2.541379   1.042039 H        1 UNL1     0.0741
     69 H         -1.198774   0.556857   2.202121 H        1 UNL1     0.0359
     70 H         0.90651   0.746091   2.931148 H        1 UNL1     0.0600
     71 H         1.78903   -0.402841   1.316891 H        1 UNL1     0.0348
     72 H         3.365548   1.453552   1.295964 H        1 UNL1     0.0602
     73 H         0.811951   5.409925   -0.481 H        1 UNL1     0.0628
     74 H         1.585071   5.449   2.495807 H        1 UNL1     0.1022
     75 H         10.976361   2.13476   -3.429911 H        1 UNL1     0.0279
     76 H         10.835449   3.319255   -4.667011 H        1 UNL1     0.0279
     77 H         11.952703   3.53429   -3.259601 H        1 UNL1     0.0279
     78 H         9.116577   4.694235   -5.036471 H        1 UNL1     0.1553
     79 H         7.822977   3.237467   -4.675019 H        1 UNL1     0.1484
     80 H         4.068193   2.670498   -4.81514 H        1 UNL1     0.0317
     81 H         4.818608   4.187807   -5.289032 H        1 UNL1     0.0317
     82 H         6.72067   2.97233   -6.383782 H        1 UNL1     0.0428
     83 H         5.161232   2.507324   -7.02692 H        1 UNL1     0.0428
     84 H         6.909737   -0.128188   -4.18088 H        1 UNL1     0.0428
     85 H         7.834011   1.271043   -4.601583 H        1 UNL1     0.0428
     86 H         6.539054   1.369782   -2.47128 H        1 UNL1     0.0317
     87 H         5.042229   1.152145   -3.255181 H        1 UNL1     0.0317
     88 H         7.280702   0.773097   -7.37176 H        1 UNL1     0.0429
     89 H         6.901232   -0.705055   -6.48446 H        1 UNL1     0.0429
     90 H         4.369585   0.130052   -7.297938 H        1 UNL1     0.0308
     91 H         6.322977   0.918586   -9.537867 H        1 UNL1     0.0233
     92 H         4.553788   0.785734   -9.704647 H        1 UNL1     0.0233
     93 H         5.253144   2.024654   -8.684559 H        1 UNL1     0.0233
     94 H         4.643427   -1.574765   -9.135697 H        1 UNL1     0.0233
     95 H         6.339361   -1.712741   -8.646721 H        1 UNL1     0.0233
     96 H         5.046895   -2.130869   -7.498378 H        1 UNL1     0.0233
     97 H         4.236193   10.49139   -0.159065 H        1 UNL1     0.0280
     98 H         5.852543   11.090028   -0.416422 H        1 UNL1     0.0280
     99 H         4.679498   11.094143   -1.766858 H        1 UNL1     0.0280
     100 H         6.793347   10.647516   -3.069826 H        1 UNL1     0.2922
     101 H         4.700955   0.866925   2.437331 H        1 UNL1     0.0236
     102 H         6.026581   2.093371   2.505191 H        1 UNL1     0.0236
     103 H         6.317081   0.478672   1.93611 H        1 UNL1     0.0236
     104 H         4.319243   -0.581435   1.286505 H        1 UNL1     0.2098
     105 H         0.70865   1.282381   -0.929571 H        1 UNL1     0.0234
     106 H         1.291012   -0.40433   -1.01297 H        1 UNL1     0.0234
     107 H         0.0   -0.0   0.0 H        1 UNL1     0.0234
     108 H         1.228573   3.27005   1.730086 H        1 UNL1     0.2098
     109 H         1.107974   3.055875   -0.868143 H        1 UNL1     0.0234
     110 H         -0.149633   2.32775   -1.917458 H        1 UNL1     0.0234
     111 H         0.105393   4.037664   -1.91594 H        1 UNL1     0.0234
     112 H         -3.612154   -1.454514   1.463821 H        1 UNL1     0.0342
     113 H         -3.236747   0.18286   2.109045 H        1 UNL1     0.0342
     114 H         -4.431054   -0.01864   0.824132 H        1 UNL1     0.0342
     115 H         -2.645431   2.010133   3.294385 H        1 UNL1     0.0234
     116 H         -1.141157   1.969855   4.219762 H        1 UNL1     0.0234
     117 H         -1.601018   3.349455   3.200507 H        1 UNL1     0.0234
     118 H         1.014757   7.679054   -0.819333 H        1 UNL1     0.0309
     119 H         2.288294   7.762102   -2.076022 H        1 UNL1     0.0309
     120 H         1.516288   6.251191   -1.647876 H        1 UNL1     0.0309
     121 H         -0.247645   6.30776   2.773145 H        1 UNL1     0.0524
     122 H         -1.990168   6.109319   2.547105 H        1 UNL1     0.0524
     123 H         -1.197726   5.383943   3.968234 H        1 UNL1     0.0524
@<TRIPOS>BOND
     1     1     2    1
     2     1    42    1
     3     2     3    2
     4     3     4    1
     5     4     5    2
     6     5     7    1
     7     6    75    1
     8     6    76    1
     9     6    77    1
    10     7     9   am
    11     9    10    1
    12    10    11    2
    13    10    43    1
    14    11    14    1
    15    11    15    1
    16    12    13   ar
    17    12    27   ar
    18    12    43    1
    19    13    14    1
    20    13    30   ar
    21    14    17    2
    22    15    16    1
    23    16    17    1
    24    16    18    1
    25    16    22    1
    26    18    19    1
    27    19    20    1
    28    20    21    1
    29    21    22    1
    30    23    24    1
    31    23    88    1
    32    23    89    1
    33    24    25    1
    34    24    26    1
    35    24    90    1
    36    25    91    1
    37    25    92    1
    38    25    93    1
    39    26    94    1
    40    26    95    1
    41    26    96    1
    42    27    28   ar
    43    28    29   ar
    44    29    30   ar
    45    29    31    1
    46    30    33    1
    47    31    32    1
    48    32    33    1
    49    32    35    1
    50    34    97    1
    51    34    98    1
    52    34    99    1
    53    35    61    1
    54    36    37    1
    55    36    60    1
    56    37    38    1
    57    38    39    1
    58    39    40    1
    59    40    41    1
    60    41    42    1
    61    45   100    1
    62    47   101    1
    63    47   102    1
    64    47   103    1
    65    48   104    1
    66    49   105    1
    67    49   106    1
    68    49   107    1
    69    50   108    1
    70    51    59    1
    71    52   109    1
    72    52   110    1
    73    52   111    1
    74    53    54    1
    75    54    55    2
    76    54    56    1
    77    56   112    1
    78    56   113    1
    79    56   114    1
    80    57   115    1
    81    57   116    1
    82    57   117    1
    83    58   118    1
    84    58   119    1
    85    58   120    1
    86    59   121    1
    87    59   122    1
    88    59   123    1
    89    60    61    2
    90     1    47    1
    91     1    62    1
    92     2    63    1
    93     3    64    1
    94     4    65    1
    95     5     6    1
    96     7     8    2
    97     9    78    1
    98    15    79    1
    99    18    80    1
   100    18    81    1
   101    19    82    1
   102    19    83    1
   103    20    23    1
   104    21    84    1
   105    21    85    1
   106    22    86    1
   107    22    87    1
   108    27    45    1
   109    28    34    1
   110    32    58    1
   111    33    46    2
   112    36    51    1
   113    36    66    1
   114    37    52    1
   115    37    67    1
   116    38    53    1
   117    38    68    1
   118    42    48    1
   119    42    72    1
   120    43    44    2
   121    60    73    1
   122    61    74    1
   123    39    69    1
   124    39    57    1
   125    40    70    1
   126    40    50    1
   127    41    71    1
   128    41    49    1
