@<TRIPOS>MOLECULE
*****
 123 128 0 0 0
SMALL
GASTEIGER

@<TRIPOS>ATOM
     1 C         4.72184   1.023664   -2.198429 C.3        1 UNL1     0.0009
     2 C         5.581683   2.283017   -3.252819 C.2        1 UNL1     -0.0787
     3 C         6.22202   2.652758   -4.49753 C.2        1 UNL1     -0.0649
     4 C         6.778467   4.181069   -4.967624 C.2        1 UNL1     -0.0542
     5 C         7.142564   4.996351   -6.067545 C.2        1 UNL1     0.0115
     6 C         7.433692   4.991215   -7.593501 C.3        1 UNL1     -0.0348
     7 C         7.207072   6.587793   -5.867191 C.2        1 UNL1     0.2441
     8 O         8.257578   7.198771   -5.726946 O.2        1 UNL1     -0.2702
     9 N         6.001221   7.26312   -6.124113 N.am        1 UNL1     -0.2772
     10 C         5.228318   7.315259   -4.986912 C.2        1 UNL1     0.1049
     11 C         4.498199   6.245185   -4.729832 C.2        1 UNL1     0.0801
     12 C         5.31623   7.887331   -2.553327 C.ar        1 UNL1     0.0753
     13 C         4.707779   6.614406   -2.312376 C.ar        1 UNL1     0.0305
     14 C         4.159625   5.809823   -3.401975 C.2        1 UNL1     0.0924
     15 N         4.218731   5.183466   -5.505188 N.pl3        1 UNL1     -0.3170
     16 C         3.241301   4.38226   -4.817473 C.3        1 UNL1     0.1275
     17 N         3.480665   4.667142   -3.354848 N.2        1 UNL1     -0.2557
     18 C         1.869222   4.964447   -5.143289 C.3        1 UNL1     0.0016
     19 C         1.701933   4.999177   -6.65405 C.3        1 UNL1     0.0026
     20 N         1.831974   3.643618   -7.170361 N.3        1 UNL1     -0.3018
     21 C         3.096545   2.976452   -6.853944 C.3        1 UNL1     0.0026
     22 C         3.24184   2.948599   -5.331443 C.3        1 UNL1     0.0016
     23 C         1.396152   3.520322   -8.547133 C.3        1 UNL1     0.0012
     24 C         1.188053   4.908575   -9.172596 C.3        1 UNL1     -0.0339
     25 C         2.096967   5.116541   -10.395168 C.3        1 UNL1     -0.0615
     26 C         -0.27607   5.107153   -9.524294 C.3        1 UNL1     -0.0615
     27 C         5.727032   8.701766   -1.500684 C.ar        1 UNL1     0.1347
     28 C         5.546439   8.369458   -0.169892 C.ar        1 UNL1     0.0342
     29 C         4.98994   7.090362   0.043148 C.ar        1 UNL1     0.1435
     30 C         4.606809   6.248306   -1.00154 C.ar        1 UNL1     0.0774
     31 O         4.650505   6.666602   1.280168 O.3        1 UNL1     -0.4436
     32 C         3.722808   5.594555   1.054416 C.3        1 UNL1     0.3143
     33 C         4.025968   5.09625   -0.344155 C.2        1 UNL1     0.2504
     34 C         5.729298   9.29302   1.002156 C.3        1 UNL1     -0.0327
     35 O         4.066297   4.536661   1.957813 O.2        1 UNL1     -0.4528
     36 C         0.818617   2.72778   2.725024 C.3        1 UNL1     0.0854
     37 C         -0.198533   2.042657   1.73329 C.3        1 UNL1     0.0236
     38 C         -0.520169   0.504085   2.051235 C.3        1 UNL1     0.1131
     39 C         0.667711   -0.518346   2.265352 C.3        1 UNL1     0.0200
     40 C         1.993879   -0.496572   1.253799 C.3        1 UNL1     0.0661
     41 C         1.950191   -0.494973   -0.44199 C.3        1 UNL1     0.0091
     42 C         3.089501   0.267469   -1.661029 C.3        1 UNL1     0.0661
     43 C         5.413961   8.350943   -3.95966 C.2        1 UNL1     0.2131
     44 O         5.53354   9.520731   -4.275944 O.2        1 UNL1     -0.2851
     45 O         6.351897   9.905013   -1.821898 O.3        1 UNL1     -0.5056
     46 O         3.848632   3.990874   -0.805187 O.2        1 UNL1     -0.2836
     47 C         5.742844   -0.010966   -1.653385 C.3        1 UNL1     -0.0566
     48 O         3.187428   -0.950126   -2.501856 O.3        1 UNL1     -0.3909
     49 C         0.542587   -0.175277   -0.893587 C.3        1 UNL1     -0.0577
     50 O         2.95942   0.427807   1.713124 O.3        1 UNL1     -0.3910
     51 O         1.447749   1.871198   3.651247 O.3        1 UNL1     -0.3753
     52 C         -0.032097   2.57217   0.271489 C.3        1 UNL1     -0.0564
     53 O         -1.729292   -0.017843   1.331555 O.3        1 UNL1     -0.4608
     54 C         -1.861744   -1.278145   0.809994 C.2        1 UNL1     0.3042
     55 O         -2.274629   -1.584224   -0.307897 O.2        1 UNL1     -0.2512
     56 C         -1.381875   -2.363625   1.730956 C.3        1 UNL1     0.0332
     57 C         0.932351   -0.627505   3.838955 C.3        1 UNL1     -0.0567
     58 C         2.311966   6.227779   1.063502 C.3        1 UNL1     0.0210
     59 C         0.999239   2.012007   4.998421 C.3        1 UNL1     0.0372
     60 C         1.89634   3.520086   2.072395 C.2        1 UNL1     -0.0208
     61 C         3.206315   3.564994   2.318758 C.2        1 UNL1     0.0882
     62 H         4.602364   1.785894   -1.419044 H        1 UNL1     0.0365
     63 H         5.655899   3.117992   -2.552977 H        1 UNL1     0.0576
     64 H         6.256539   1.969038   -5.348672 H        1 UNL1     0.0615
     65 H         6.778694   4.755786   -4.037472 H        1 UNL1     0.0622
     66 H         0.211271   3.451011   3.287264 H        1 UNL1     0.0645
     67 H         -1.165088   2.52182   1.967246 H        1 UNL1     0.0362
     68 H         -0.991317   0.615131   3.039774 H        1 UNL1     0.0741
     69 H         0.288837   -1.523655   2.138004 H        1 UNL1     0.0359
     70 H         2.427464   -1.488003   1.486455 H        1 UNL1     0.0600
     71 H         1.998773   -1.584159   -0.637619 H        1 UNL1     0.0348
     72 H         3.653237   0.20138   -0.719143 H        1 UNL1     0.0602
     73 H         1.46032   4.209265   1.392566 H        1 UNL1     0.0628
     74 H         3.738486   2.858082   2.956179 H        1 UNL1     0.1022
     75 H         7.083143   5.94202   -8.062669 H        1 UNL1     0.0279
     76 H         8.480304   4.956835   -7.887595 H        1 UNL1     0.0279
     77 H         6.83456   4.246902   -8.138239 H        1 UNL1     0.0279
     78 H         5.471072   6.759187   -6.831977 H        1 UNL1     0.1553
     79 H         4.31827   5.181371   -6.503698 H        1 UNL1     0.1484
     80 H         1.096988   4.34689   -4.668901 H        1 UNL1     0.0317
     81 H         1.763262   5.972464   -4.728168 H        1 UNL1     0.0317
     82 H         2.428555   5.674928   -7.128702 H        1 UNL1     0.0428
     83 H         0.717877   5.419295   -6.86425 H        1 UNL1     0.0428
     84 H         3.136855   1.93367   -7.183778 H        1 UNL1     0.0428
     85 H         3.947267   3.450336   -7.362889 H        1 UNL1     0.0428
     86 H         4.104968   2.3403   -5.134032 H        1 UNL1     0.0317
     87 H         2.419689   2.374454   -4.887012 H        1 UNL1     0.0317
     88 H         2.18191   2.998234   -9.108651 H        1 UNL1     0.0429
     89 H         0.486593   2.91081   -8.624408 H        1 UNL1     0.0429
     90 H         1.423995   5.677361   -8.427269 H        1 UNL1     0.0308
     91 H         2.919207   4.394817   -10.406844 H        1 UNL1     0.0233
     92 H         1.525398   5.024045   -11.321646 H        1 UNL1     0.0233
     93 H         2.549956   6.115186   -10.41374 H        1 UNL1     0.0233
     94 H         -0.517703   4.574316   -10.450325 H        1 UNL1     0.0233
     95 H         -0.909353   4.704697   -8.728716 H        1 UNL1     0.0233
     96 H         -0.513185   6.165723   -9.662763 H        1 UNL1     0.0233
     97 H         4.803677   9.445295   1.54921 H        1 UNL1     0.0280
     98 H         6.448216   8.898213   1.731909 H        1 UNL1     0.0280
     99 H         6.08619   10.273663   0.647103 H        1 UNL1     0.0280
     100 H         6.250872   10.171424   -2.718804 H        1 UNL1     0.2922
     101 H         5.698903   -0.032463   -0.564687 H        1 UNL1     0.0236
     102 H         6.756048   0.153311   -2.018646 H        1 UNL1     0.0236
     103 H         5.495587   -1.03989   -1.963823 H        1 UNL1     0.0236
     104 H         3.207946   -1.721646   -1.902435 H        1 UNL1     0.2098
     105 H         0.460731   0.714678   -1.512531 H        1 UNL1     0.0234
     106 H         0.012868   -1.007605   -1.356786 H        1 UNL1     0.0234
     107 H         -0.0   0.0   0.0 H        1 UNL1     0.0234
     108 H         3.59397   0.570571   0.98461 H        1 UNL1     0.2098
     109 H         -0.213641   3.653506   0.197561 H        1 UNL1     0.0234
     110 H         0.944286   2.333935   -0.164017 H        1 UNL1     0.0234
     111 H         -0.750758   2.102617   -0.413341 H        1 UNL1     0.0234
     112 H         -0.593613   -2.944552   1.242576 H        1 UNL1     0.0342
     113 H         -1.040977   -1.96871   2.686819 H        1 UNL1     0.0342
     114 H         -2.223818   -3.040405   1.931619 H        1 UNL1     0.0342
     115 H         1.263634   -1.634281   4.128508 H        1 UNL1     0.0234
     116 H         1.671765   0.082321   4.215071 H        1 UNL1     0.0234
     117 H         0.017742   -0.520944   4.447295 H        1 UNL1     0.0234
     118 H         1.729598   5.93001   1.952989 H        1 UNL1     0.0309
     119 H         2.330931   7.320221   0.997074 H        1 UNL1     0.0309
     120 H         1.691513   5.883951   0.228681 H        1 UNL1     0.0309
     121 H         1.597663   2.793958   5.465109 H        1 UNL1     0.0524
     122 H         -0.057182   2.322715   5.057342 H        1 UNL1     0.0524
     123 H         1.121789   1.07554   5.535176 H        1 UNL1     0.0524
@<TRIPOS>BOND
     1     1     2    1
     2     1    42    1
     3     2     3    2
     4     3     4    1
     5     4     5    2
     6     5     7    1
     7     6    75    1
     8     6    76    1
     9     6    77    1
    10     7     9   am
    11     9    10    1
    12    10    11    2
    13    10    43    1
    14    11    14    1
    15    11    15    1
    16    12    13   ar
    17    12    27   ar
    18    12    43    1
    19    13    14    1
    20    13    30   ar
    21    14    17    2
    22    15    16    1
    23    16    17    1
    24    16    18    1
    25    16    22    1
    26    18    19    1
    27    19    20    1
    28    20    21    1
    29    21    22    1
    30    23    24    1
    31    23    88    1
    32    23    89    1
    33    24    25    1
    34    24    26    1
    35    24    90    1
    36    25    91    1
    37    25    92    1
    38    25    93    1
    39    26    94    1
    40    26    95    1
    41    26    96    1
    42    27    28   ar
    43    28    29   ar
    44    29    30   ar
    45    29    31    1
    46    30    33    1
    47    31    32    1
    48    32    33    1
    49    32    35    1
    50    34    97    1
    51    34    98    1
    52    34    99    1
    53    35    61    1
    54    36    37    1
    55    36    60    1
    56    37    38    1
    57    38    39    1
    58    39    40    1
    59    40    41    1
    60    41    42    1
    61    45   100    1
    62    47   101    1
    63    47   102    1
    64    47   103    1
    65    48   104    1
    66    49   105    1
    67    49   106    1
    68    49   107    1
    69    50   108    1
    70    51    59    1
    71    52   109    1
    72    52   110    1
    73    52   111    1
    74    53    54    1
    75    54    55    2
    76    54    56    1
    77    56   112    1
    78    56   113    1
    79    56   114    1
    80    57   115    1
    81    57   116    1
    82    57   117    1
    83    58   118    1
    84    58   119    1
    85    58   120    1
    86    59   121    1
    87    59   122    1
    88    59   123    1
    89    60    61    2
    90     1    47    1
    91     1    62    1
    92     2    63    1
    93     3    64    1
    94     4    65    1
    95     5     6    1
    96     7     8    2
    97     9    78    1
    98    15    79    1
    99    18    80    1
   100    18    81    1
   101    19    82    1
   102    19    83    1
   103    20    23    1
   104    21    84    1
   105    21    85    1
   106    22    86    1
   107    22    87    1
   108    27    45    1
   109    28    34    1
   110    32    58    1
   111    33    46    2
   112    36    51    1
   113    36    66    1
   114    37    52    1
   115    37    67    1
   116    38    53    1
   117    38    68    1
   118    42    48    1
   119    42    72    1
   120    43    44    2
   121    60    73    1
   122    61    74    1
   123    39    69    1
   124    39    57    1
   125    40    70    1
   126    40    50    1
   127    41    71    1
   128    41    49    1
