@<TRIPOS>MOLECULE
*****
 123 128 0 0 0
SMALL
GASTEIGER

@<TRIPOS>ATOM
     1 C         5.167322   1.748228   0.491681 C.3        1 UNL1     0.0009
     2 C         6.604007   2.5546   -0.358459 C.2        1 UNL1     -0.0787
     3 C         7.885833   2.456609   -1.024317 C.2        1 UNL1     -0.0649
     4 C         8.763313   3.691994   -1.779438 C.2        1 UNL1     -0.0542
     5 C         9.783294   3.984968   -2.717992 C.2        1 UNL1     0.0115
     6 C         10.91139   3.359814   -3.583963 C.3        1 UNL1     -0.0348
     7 C         9.878693   5.468476   -3.323874 C.2        1 UNL1     0.2441
     8 O         10.702659   6.289906   -2.945908 O.2        1 UNL1     -0.2702
     9 N         9.128405   5.675991   -4.49441 N.am        1 UNL1     -0.2772
     10 C         7.845738   6.062627   -4.180403 C.2        1 UNL1     0.1049
     11 C         6.999906   5.091148   -3.888823 C.2        1 UNL1     0.0801
     12 C         6.547554   7.668768   -2.768893 C.ar        1 UNL1     0.0753
     13 C         5.788449   6.540715   -2.32183 C.ar        1 UNL1     0.0305
     14 C         5.905246   5.23528   -2.967779 C.2        1 UNL1     0.0924
     15 N         7.122424   3.762229   -4.048485 N.pl3        1 UNL1     -0.3170
     16 C         5.852545   3.163014   -3.734475 C.3        1 UNL1     0.1275
     17 N         5.216278   4.117876   -2.754105 N.2        1 UNL1     -0.2557
     18 C         4.999613   3.222679   -4.998061 C.3        1 UNL1     0.0016
     19 C         5.754369   2.539014   -6.127014 C.3        1 UNL1     0.0026
     20 N         6.024443   1.16073   -5.741759 N.3        1 UNL1     -0.3018
     21 C         6.787875   0.999757   -4.502554 C.3        1 UNL1     0.0026
     22 C         6.009254   1.689856   -3.381211 C.3        1 UNL1     0.0016
     23 C         6.468816   0.341632   -6.851828 C.3        1 UNL1     0.0012
     24 C         5.313286   0.092652   -7.833926 C.3        1 UNL1     -0.0339
     25 C         5.348981   1.085295   -9.007571 C.3        1 UNL1     -0.0615
     26 C         5.342255   -1.346642   -8.318045 C.3        1 UNL1     -0.0615
     27 C         6.343018   8.936248   -2.228726 C.ar        1 UNL1     0.1347
     28 C         5.384046   9.205456   -1.268545 C.ar        1 UNL1     0.0342
     29 C         4.682438   8.07086   -0.808542 C.ar        1 UNL1     0.1435
     30 C         4.901757   6.789031   -1.314541 C.ar        1 UNL1     0.0774
     31 O         3.641515   8.184138   0.04507 O.3        1 UNL1     -0.4436
     32 C         2.919742   6.951428   -0.097558 C.3        1 UNL1     0.3143
     33 C         3.932933   5.958477   -0.630199 C.2        1 UNL1     0.2504
     34 C         4.937333   10.571405   -0.827262 C.3        1 UNL1     -0.0327
     35 O         2.559172   6.5142   1.218525 O.2        1 UNL1     -0.4528
     36 C         -0.684037   4.582404   0.821223 C.3        1 UNL1     0.0854
     37 C         -0.989497   3.322217   -0.076632 C.3        1 UNL1     0.0236
     38 C         -1.59008   2.060885   0.710824 C.3        1 UNL1     0.1131
     39 C         -0.86426   1.529358   2.011952 C.3        1 UNL1     0.0200
     40 C         0.796926   1.383681   2.052932 C.3        1 UNL1     0.0661
     41 C         1.756152   0.615271   0.883726 C.3        1 UNL1     0.0091
     42 C         3.463721   0.977944   0.319741 C.3        1 UNL1     0.0661
     43 C         7.497495   7.461466   -3.890007 C.2        1 UNL1     0.2131
     44 O         7.897385   8.359814   -4.608196 O.2        1 UNL1     -0.2851
     45 O         7.155322   9.971489   -2.68685 O.3        1 UNL1     -0.5056
     46 O         3.948848   4.754887   -0.49992 O.2        1 UNL1     -0.2836
     47 C         5.563767   1.31813   1.929676 C.3        1 UNL1     -0.0566
     48 O         3.912192   -0.433227   0.400909 O.3        1 UNL1     -0.3909
     49 C         0.92185   0.38325   -0.356274 C.3        1 UNL1     -0.0577
     50 O         1.397241   2.601339   2.446191 O.3        1 UNL1     -0.3910
     51 O         -0.808028   4.392166   2.212578 O.3        1 UNL1     -0.3753
     52 C         0.054855   3.162145   -1.229305 C.3        1 UNL1     -0.0564
     53 O         -2.192828   1.022313   -0.189392 O.3        1 UNL1     -0.4608
     54 C         -2.427304   -0.284561   0.149769 C.2        1 UNL1     0.3042
     55 O         -1.858375   -1.283558   -0.288595 O.2        1 UNL1     -0.2512
     56 C         -3.467154   -0.450563   1.221156 C.3        1 UNL1     0.0332
     57 C         -1.585138   2.197886   3.27353 C.3        1 UNL1     -0.0567
     58 C         1.844477   7.197038   -1.181536 C.3        1 UNL1     0.0210
     59 C         -1.121081   5.570892   2.953166 C.3        1 UNL1     0.0372
     60 C         0.644985   5.211487   0.590755 C.2        1 UNL1     -0.0208
     61 C         1.558023   5.6463   1.460263 C.2        1 UNL1     0.0882
     62 H         4.69148   2.732399   0.579389 H        1 UNL1     0.0365
     63 H         6.337844   3.608376   -0.252704 H        1 UNL1     0.0576
     64 H         8.343399   1.489816   -1.245795 H        1 UNL1     0.0615
     65 H         8.276326   4.607284   -1.432208 H        1 UNL1     0.0622
     66 H         -1.428659   5.329112   0.511366 H        1 UNL1     0.0645
     67 H         -1.855074   3.631893   -0.687727 H        1 UNL1     0.0362
     68 H         -2.537089   2.497687   1.062819 H        1 UNL1     0.0741
     69 H         -1.195839   0.518205   2.206972 H        1 UNL1     0.0359
     70 H         0.908728   0.722985   2.933865 H        1 UNL1     0.0600
     71 H         1.799696   -0.40607   1.310251 H        1 UNL1     0.0348
     72 H         3.357958   1.465761   1.299621 H        1 UNL1     0.0602
     73 H         0.762806   5.409146   -0.445728 H        1 UNL1     0.0628
     74 H         1.540554   5.435206   2.530017 H        1 UNL1     0.1022
     75 H         10.955803   2.254471   -3.431395 H        1 UNL1     0.0279
     76 H         10.79767   3.443046   -4.662485 H        1 UNL1     0.0279
     77 H         11.916516   3.664314   -3.257307 H        1 UNL1     0.0279
     78 H         9.066295   4.806258   -5.019562 H        1 UNL1     0.1553
     79 H         7.787609   3.334438   -4.666106 H        1 UNL1     0.1484
     80 H         4.038313   2.731738   -4.804039 H        1 UNL1     0.0317
     81 H         4.773058   4.259557   -5.268628 H        1 UNL1     0.0317
     82 H         6.68505   3.070346   -6.374869 H        1 UNL1     0.0428
     83 H         5.129143   2.59456   -7.018674 H        1 UNL1     0.0428
     84 H         6.908145   -0.043327   -4.193813 H        1 UNL1     0.0428
     85 H         7.817985   1.367756   -4.606315 H        1 UNL1     0.0428
     86 H         6.525739   1.439091   -2.473274 H        1 UNL1     0.0317
     87 H         5.029785   1.212241   -3.256226 H        1 UNL1     0.0317
     88 H         7.264873   0.883581   -7.378971 H        1 UNL1     0.0429
     89 H         6.901373   -0.604313   -6.501318 H        1 UNL1     0.0429
     90 H         4.360309   0.211586   -7.304868 H        1 UNL1     0.0308
     91 H         6.3021   1.034661   -9.542456 H        1 UNL1     0.0233
     92 H         4.534013   0.88566   -9.707272 H        1 UNL1     0.0233
     93 H         5.222956   2.124283   -8.679765 H        1 UNL1     0.0233
     94 H         4.647827   -1.477679   -9.154965 H        1 UNL1     0.0233
     95 H         6.34576   -1.602537   -8.669411 H        1 UNL1     0.0233
     96 H         5.059156   -2.041146   -7.522125 H        1 UNL1     0.0233
     97 H         4.137762   10.521527   -0.094166 H        1 UNL1     0.0280
     98 H         5.747746   11.137717   -0.35 H        1 UNL1     0.0280
     99 H         4.572428   11.139689   -1.698464 H        1 UNL1     0.0280
     100 H         6.68833   10.722785   -3.007935 H        1 UNL1     0.2922
     101 H         4.700968   0.884353   2.434721 H        1 UNL1     0.0236
     102 H         6.014658   2.123213   2.508919 H        1 UNL1     0.0236
     103 H         6.319959   0.515406   1.928191 H        1 UNL1     0.0236
     104 H         4.331478   -0.559683   1.27451 H        1 UNL1     0.2098
     105 H         0.709216   1.282323   -0.92922 H        1 UNL1     0.0234
     106 H         1.291124   -0.404539   -1.012744 H        1 UNL1     0.0234
     107 H         0.0   -0.0   0.0 H        1 UNL1     0.0234
     108 H         1.199275   3.259695   1.752544 H        1 UNL1     0.2098
     109 H         1.079716   3.048447   -0.849247 H        1 UNL1     0.0234
     110 H         -0.177707   2.335329   -1.909036 H        1 UNL1     0.0234
     111 H         0.07605   4.045214   -1.881752 H        1 UNL1     0.0234
     112 H         -3.599577   -1.512389   1.449927 H        1 UNL1     0.0342
     113 H         -3.223816   0.115211   2.119226 H        1 UNL1     0.0342
     114 H         -4.421831   -0.06765   0.834979 H        1 UNL1     0.0342
     115 H         -2.654776   1.949671   3.311633 H        1 UNL1     0.0234
     116 H         -1.148614   1.917718   4.234259 H        1 UNL1     0.0234
     117 H         -1.623664   3.299764   3.225337 H        1 UNL1     0.0234
     118 H         0.943474   7.683845   -0.768959 H        1 UNL1     0.0309
     119 H         2.213811   7.785328   -2.027533 H        1 UNL1     0.0309
     120 H         1.455802   6.265273   -1.606803 H        1 UNL1     0.0309
     121 H         -0.299995   6.274054   2.81628 H        1 UNL1     0.0524
     122 H         -2.040875   6.06014   2.591708 H        1 UNL1     0.0524
     123 H         -1.238973   5.332746   4.006485 H        1 UNL1     0.0524
@<TRIPOS>BOND
     1     1     2    1
     2     1    42    1
     3     2     3    2
     4     3     4    1
     5     4     5    2
     6     5     7    1
     7     6    75    1
     8     6    76    1
     9     6    77    1
    10     7     9   am
    11     9    10    1
    12    10    11    2
    13    10    43    1
    14    11    14    1
    15    11    15    1
    16    12    13   ar
    17    12    27   ar
    18    12    43    1
    19    13    14    1
    20    13    30   ar
    21    14    17    2
    22    15    16    1
    23    16    17    1
    24    16    18    1
    25    16    22    1
    26    18    19    1
    27    19    20    1
    28    20    21    1
    29    21    22    1
    30    23    24    1
    31    23    88    1
    32    23    89    1
    33    24    25    1
    34    24    26    1
    35    24    90    1
    36    25    91    1
    37    25    92    1
    38    25    93    1
    39    26    94    1
    40    26    95    1
    41    26    96    1
    42    27    28   ar
    43    28    29   ar
    44    29    30   ar
    45    29    31    1
    46    30    33    1
    47    31    32    1
    48    32    33    1
    49    32    35    1
    50    34    97    1
    51    34    98    1
    52    34    99    1
    53    35    61    1
    54    36    37    1
    55    36    60    1
    56    37    38    1
    57    38    39    1
    58    39    40    1
    59    40    41    1
    60    41    42    1
    61    45   100    1
    62    47   101    1
    63    47   102    1
    64    47   103    1
    65    48   104    1
    66    49   105    1
    67    49   106    1
    68    49   107    1
    69    50   108    1
    70    51    59    1
    71    52   109    1
    72    52   110    1
    73    52   111    1
    74    53    54    1
    75    54    55    2
    76    54    56    1
    77    56   112    1
    78    56   113    1
    79    56   114    1
    80    57   115    1
    81    57   116    1
    82    57   117    1
    83    58   118    1
    84    58   119    1
    85    58   120    1
    86    59   121    1
    87    59   122    1
    88    59   123    1
    89    60    61    2
    90     1    47    1
    91     1    62    1
    92     2    63    1
    93     3    64    1
    94     4    65    1
    95     5     6    1
    96     7     8    2
    97     9    78    1
    98    15    79    1
    99    18    80    1
   100    18    81    1
   101    19    82    1
   102    19    83    1
   103    20    23    1
   104    21    84    1
   105    21    85    1
   106    22    86    1
   107    22    87    1
   108    27    45    1
   109    28    34    1
   110    32    58    1
   111    33    46    2
   112    36    51    1
   113    36    66    1
   114    37    52    1
   115    37    67    1
   116    38    53    1
   117    38    68    1
   118    42    48    1
   119    42    72    1
   120    43    44    2
   121    60    73    1
   122    61    74    1
   123    39    69    1
   124    39    57    1
   125    40    70    1
   126    40    50    1
   127    41    71    1
   128    41    49    1
