@<TRIPOS>MOLECULE
*****
 123 128 0 0 0
SMALL
GASTEIGER

@<TRIPOS>ATOM
     1 C         -3.027663   1.283756   -2.494671 C.3        1 UNL1     0.0009
     2 C         -4.818777   0.807163   -2.45219 C.2        1 UNL1     -0.0787
     3 C         -5.907374   -0.028775   -2.912854 C.2        1 UNL1     -0.0649
     4 C         -7.502726   -0.065109   -2.347267 C.2        1 UNL1     -0.0542
     5 C         -8.692993   -0.830352   -2.27836 C.2        1 UNL1     0.0115
     6 C         -9.401534   -2.103236   -2.817859 C.3        1 UNL1     -0.0348
     7 C         -9.801217   -0.446138   -1.182364 C.2        1 UNL1     0.2441
     8 O         -10.822677   0.168825   -1.456163 O.2        1 UNL1     -0.2702
     9 N         -9.648433   -1.086996   0.059453 N.am        1 UNL1     -0.2772
     10 C         -8.819904   -0.355172   0.87878 C.2        1 UNL1     0.1049
     11 C         -7.522992   -0.531361   0.702149 C.2        1 UNL1     0.0801
     12 C         -8.426629   1.957846   1.746313 C.ar        1 UNL1     0.0753
     13 C         -7.063441   1.793143   1.342332 C.ar        1 UNL1     0.0305
     14 C         -6.540041   0.493547   0.927419 C.2        1 UNL1     0.0924
     15 N         -6.866847   -1.466098   -0.00656 N.pl3        1 UNL1     -0.3170
     16 C         -5.461962   -1.319462   0.267391 C.3        1 UNL1     0.1275
     17 N         -5.295812   0.138703   0.619346 N.2        1 UNL1     -0.2557
     18 C         -5.166508   -2.099739   1.544724 C.3        1 UNL1     0.0016
     19 C         -5.621944   -3.537541   1.352652 C.3        1 UNL1     0.0026
     20 N         -4.911063   -4.105444   0.215479 N.3        1 UNL1     -0.3018
     21 C         -5.084159   -3.38608   -1.048215 C.3        1 UNL1     0.0026
     22 C         -4.616262   -1.94562   -0.833638 C.3        1 UNL1     0.0016
     23 C         -5.044329   -5.546094   0.129398 C.3        1 UNL1     0.0012
     24 C         -5.502664   -5.961509   -1.277413 C.3        1 UNL1     -0.0339
     25 C         -5.257409   -7.458264   -1.529667 C.3        1 UNL1     -0.0615
     26 C         -6.961916   -5.592253   -1.479929 C.3        1 UNL1     -0.0615
     27 C         -8.887295   3.170024   2.254772 C.ar        1 UNL1     0.1347
     28 C         -8.072343   4.272128   2.44258 C.ar        1 UNL1     0.0342
     29 C         -6.745868   4.102099   1.992339 C.ar        1 UNL1     0.1435
     30 C         -6.2793   2.905159   1.447481 C.ar        1 UNL1     0.0774
     31 O         -5.802658   5.045285   2.206264 O.3        1 UNL1     -0.4436
     32 C         -4.555073   4.350553   2.058776 C.3        1 UNL1     0.3143
     33 C         -4.872845   3.143822   1.199105 C.2        1 UNL1     0.2504
     34 C         -8.431775   5.513968   3.209875 C.3        1 UNL1     -0.0327
     35 O         -3.686671   5.192822   1.290847 O.2        1 UNL1     -0.4528
     36 C         -0.163707   4.393217   2.455942 C.3        1 UNL1     0.0854
     37 C         0.591248   3.008514   2.468749 C.3        1 UNL1     0.0236
     38 C         1.998898   2.999073   1.700521 C.3        1 UNL1     0.1131
     39 C         2.090492   3.555387   0.222551 C.3        1 UNL1     0.0200
     40 C         0.919736   3.167137   -0.900406 C.3        1 UNL1     0.0661
     41 C         0.348446   1.606675   -1.241281 C.3        1 UNL1     0.0091
     42 C         -1.313138   1.036918   -1.770355 C.3        1 UNL1     0.0661
     43 C         -9.312248   0.768424   1.689634 C.2        1 UNL1     0.2131
     44 O         -10.333394   0.657833   2.343674 O.2        1 UNL1     -0.2851
     45 O         -10.238704   3.260535   2.58179 O.3        1 UNL1     -0.5056
     46 O         -4.136433   2.531099   0.458754 O.2        1 UNL1     -0.2836
     47 C         -2.710347   2.073192   -3.793164 C.3        1 UNL1     -0.0566
     48 O         -0.795857   0.17614   -2.861499 O.3        1 UNL1     -0.3909
     49 C         0.809071   0.668696   -0.147885 C.3        1 UNL1     -0.0577
     50 O         -0.162739   4.0732   -0.829548 O.3        1 UNL1     -0.3910
     51 O         0.396368   5.392663   1.634446 O.3        1 UNL1     -0.3753
     52 C         -0.402493   1.803358   2.397852 C.3        1 UNL1     -0.0564
     53 O         2.848375   1.8033   2.018075 O.3        1 UNL1     -0.4608
     54 C         3.868288   1.323012   1.238952 C.2        1 UNL1     0.3042
     55 O         3.841993   0.343693   0.494587 O.2        1 UNL1     -0.2512
     56 C         5.115544   2.158147   1.299086 C.3        1 UNL1     0.0332
     57 C         2.56266   5.081036   0.309889 C.3        1 UNL1     -0.0567
     58 C         -4.155009   3.865202   3.471544 C.3        1 UNL1     0.0210
     59 C         0.011165   6.726052   1.965439 C.3        1 UNL1     0.0372
     60 C         -1.610329   4.317598   2.114285 C.2        1 UNL1     -0.0208
     61 C         -2.345431   5.070154   1.294512 C.2        1 UNL1     0.0882
     62 H         -3.227427   2.02962   -1.715895 H        1 UNL1     0.0365
     63 H         -5.215371   1.566081   -1.774526 H        1 UNL1     0.0576
     64 H         -5.737871   -0.865194   -3.594601 H        1 UNL1     0.0615
     65 H         -7.587311   0.84503   -1.747288 H        1 UNL1     0.0622
     66 H         -0.117852   4.742235   3.497157 H        1 UNL1     0.0645
     67 H         0.912952   2.888261   3.517846 H        1 UNL1     0.0362
     68 H         2.551062   3.722697   2.319395 H        1 UNL1     0.0741
     69 H         2.994084   3.17687   -0.23642 H        1 UNL1     0.0359
     70 H         1.450304   3.442377   -1.831964 H        1 UNL1     0.0600
     71 H         1.030444   1.327527   -2.068272 H        1 UNL1     0.0348
     72 H         -1.274299   2.111968   -1.998555 H        1 UNL1     0.0602
     73 H         -2.080239   3.601005   2.741125 H        1 UNL1     0.0628
     74 H         -1.935692   5.78461   0.579736 H        1 UNL1     0.1022
     75 H         -9.808749   -2.712219   -1.975036 H        1 UNL1     0.0279
     76 H         -10.28102   -1.943133   -3.437488 H        1 UNL1     0.0279
     77 H         -8.702648   -2.814752   -3.281542 H        1 UNL1     0.0279
     78 H         -9.216944   -1.998745   -0.076959 H        1 UNL1     0.1553
     79 H         -7.276561   -2.335212   -0.295883 H        1 UNL1     0.1484
     80 H         -4.091874   -2.044924   1.756676 H        1 UNL1     0.0317
     81 H         -5.678582   -1.652758   2.403583 H        1 UNL1     0.0317
     82 H         -6.710857   -3.604379   1.212244 H        1 UNL1     0.0428
     83 H         -5.403629   -4.075507   2.27568 H        1 UNL1     0.0428
     84 H         -4.477616   -3.785526   -1.86697 H        1 UNL1     0.0428
     85 H         -6.115355   -3.456881   -1.42096 H        1 UNL1     0.0428
     86 H         -4.631406   -1.488433   -1.805615 H        1 UNL1     0.0317
     87 H         -3.553169   -1.933208   -0.563869 H        1 UNL1     0.0317
     88 H         -4.059931   -5.992273   0.322219 H        1 UNL1     0.0429
     89 H         -5.727543   -5.929985   0.897917 H        1 UNL1     0.0429
     90 H         -4.941675   -5.385281   -2.022709 H        1 UNL1     0.0308
     91 H         -4.901715   -7.636784   -2.54884 H        1 UNL1     0.0233
     92 H         -4.527284   -7.854993   -0.820349 H        1 UNL1     0.0233
     93 H         -6.16648   -8.05802   -1.400365 H        1 UNL1     0.0233
     94 H         -7.350695   -6.071466   -2.384938 H        1 UNL1     0.0233
     95 H         -7.55692   -5.941442   -0.631401 H        1 UNL1     0.0233
     96 H         -7.089761   -4.510717   -1.579441 H        1 UNL1     0.0233
     97 H         -7.55716   5.998809   3.633205 H        1 UNL1     0.0280
     98 H         -8.915167   6.267589   2.574545 H        1 UNL1     0.0280
     99 H         -9.115459   5.253421   4.034366 H        1 UNL1     0.0280
     100 H         -10.488839   2.777785   3.349909 H        1 UNL1     0.2922
     101 H         -1.649064   2.318927   -3.823978 H        1 UNL1     0.0236
     102 H         -3.33807   2.95408   -3.923483 H        1 UNL1     0.0236
     103 H         -2.883888   1.468015   -4.698613 H        1 UNL1     0.0236
     104 H         -1.292397   0.398594   -3.673246 H        1 UNL1     0.2098
     105 H         1.686068   0.078768   -0.402191 H        1 UNL1     0.0234
     106 H         0.938097   1.135815   0.828372 H        1 UNL1     0.0234
     107 H         0.0   0.0   0.0 H        1 UNL1     0.0234
     108 H         -0.959865   3.555807   -0.604465 H        1 UNL1     0.2098
     109 H         -1.021249   1.827271   1.489952 H        1 UNL1     0.0234
     110 H         0.094487   0.830485   2.477046 H        1 UNL1     0.0234
     111 H         -1.108469   1.810896   3.238974 H        1 UNL1     0.0234
     112 H         5.879926   1.733353   0.641351 H        1 UNL1     0.0342
     113 H         4.922573   3.200861   1.051391 H        1 UNL1     0.0342
     114 H         5.500647   2.126106   2.327597 H        1 UNL1     0.0342
     115 H         2.322557   5.527699   1.284584 H        1 UNL1     0.0234
     116 H         3.630862   5.225774   0.136558 H        1 UNL1     0.0234
     117 H         2.01293   5.751448   -0.372962 H        1 UNL1     0.0234
     118 H         -4.570397   2.868183   3.70048 H        1 UNL1     0.0309
     119 H         -3.071889   3.846646   3.628736 H        1 UNL1     0.0309
     120 H         -4.565845   4.498368   4.265535 H        1 UNL1     0.0309
     121 H         0.095676   7.327792   1.060938 H        1 UNL1     0.0524
     122 H         -1.035359   6.786436   2.307753 H        1 UNL1     0.0524
     123 H         0.659448   7.122863   2.74156 H        1 UNL1     0.0524
@<TRIPOS>BOND
     1     1     2    1
     2     1    42    1
     3     2     3    2
     4     3     4    1
     5     4     5    2
     6     5     7    1
     7     6    75    1
     8     6    76    1
     9     6    77    1
    10     7     9   am
    11     9    10    1
    12    10    11    2
    13    10    43    1
    14    11    14    1
    15    11    15    1
    16    12    13   ar
    17    12    27   ar
    18    12    43    1
    19    13    14    1
    20    13    30   ar
    21    14    17    2
    22    15    16    1
    23    16    17    1
    24    16    18    1
    25    16    22    1
    26    18    19    1
    27    19    20    1
    28    20    21    1
    29    21    22    1
    30    23    24    1
    31    23    88    1
    32    23    89    1
    33    24    25    1
    34    24    26    1
    35    24    90    1
    36    25    91    1
    37    25    92    1
    38    25    93    1
    39    26    94    1
    40    26    95    1
    41    26    96    1
    42    27    28   ar
    43    28    29   ar
    44    29    30   ar
    45    29    31    1
    46    30    33    1
    47    31    32    1
    48    32    33    1
    49    32    35    1
    50    34    97    1
    51    34    98    1
    52    34    99    1
    53    35    61    1
    54    36    37    1
    55    36    60    1
    56    37    38    1
    57    38    39    1
    58    39    40    1
    59    40    41    1
    60    41    42    1
    61    45   100    1
    62    47   101    1
    63    47   102    1
    64    47   103    1
    65    48   104    1
    66    49   105    1
    67    49   106    1
    68    49   107    1
    69    50   108    1
    70    51    59    1
    71    52   109    1
    72    52   110    1
    73    52   111    1
    74    53    54    1
    75    54    55    2
    76    54    56    1
    77    56   112    1
    78    56   113    1
    79    56   114    1
    80    57   115    1
    81    57   116    1
    82    57   117    1
    83    58   118    1
    84    58   119    1
    85    58   120    1
    86    59   121    1
    87    59   122    1
    88    59   123    1
    89    60    61    2
    90     1    47    1
    91     1    62    1
    92     2    63    1
    93     3    64    1
    94     4    65    1
    95     5     6    1
    96     7     8    2
    97     9    78    1
    98    15    79    1
    99    18    80    1
   100    18    81    1
   101    19    82    1
   102    19    83    1
   103    20    23    1
   104    21    84    1
   105    21    85    1
   106    22    86    1
   107    22    87    1
   108    27    45    1
   109    28    34    1
   110    32    58    1
   111    33    46    2
   112    36    51    1
   113    36    66    1
   114    37    52    1
   115    37    67    1
   116    38    53    1
   117    38    68    1
   118    42    48    1
   119    42    72    1
   120    43    44    2
   121    60    73    1
   122    61    74    1
   123    39    69    1
   124    39    57    1
   125    40    70    1
   126    40    50    1
   127    41    71    1
   128    41    49    1
