@<TRIPOS>MOLECULE
*****
 123 128 0 0 0
SMALL
GASTEIGER

@<TRIPOS>ATOM
     1 C         3.475093   -4.076951   0.60116 C.3        1 UNL1     0.0009
     2 C         4.601001   -4.976858   1.767152 C.2        1 UNL1     -0.0787
     3 C         5.911961   -5.167666   2.351122 C.2        1 UNL1     -0.0649
     4 C         6.347527   -6.209215   3.612794 C.2        1 UNL1     -0.0542
     5 C         7.315362   -6.483259   4.610427 C.2        1 UNL1     0.0115
     6 C         8.730372   -6.102965   5.126612 C.3        1 UNL1     -0.0348
     7 C         6.921428   -7.449436   5.83039 C.2        1 UNL1     0.2441
     8 O         7.275126   -8.618779   5.894115 O.2        1 UNL1     -0.2702
     9 N         6.365982   -6.795499   6.943941 N.am        1 UNL1     -0.2772
     10 C         5.001525   -6.685079   6.804707 C.2        1 UNL1     0.1049
     11 C         4.570947   -5.670798   6.076656 C.2        1 UNL1     0.0801
     12 C         2.951207   -8.005367   6.247599 C.ar        1 UNL1     0.0753
     13 C         2.633639   -6.969581   5.312235 C.ar        1 UNL1     0.0305
     14 C         3.366317   -5.705524   5.292413 C.2        1 UNL1     0.0924
     15 N         5.233548   -4.596783   5.614078 N.pl3        1 UNL1     -0.3170
     16 C         4.269584   -3.706264   5.024159 C.3        1 UNL1     0.1275
     17 N         3.148389   -4.609382   4.571366 N.2        1 UNL1     -0.2557
     18 C         3.696025   -2.850883   6.149795 C.3        1 UNL1     0.0016
     19 C         4.842956   -2.15181   6.862141 C.3        1 UNL1     0.0026
     20 N         5.56348   -1.333094   5.896958 N.3        1 UNL1     -0.3018
     21 C         6.100489   -2.058905   4.744054 C.3        1 UNL1     0.0026
     22 C         4.93081   -2.749611   4.040725 C.3        1 UNL1     0.0016
     23 C         6.480505   -0.400601   6.52159 C.3        1 UNL1     0.0012
     24 C         7.825832   -1.083037   6.815071 C.3        1 UNL1     -0.0339
     25 C         8.232546   -2.036144   5.679189 C.3        1 UNL1     -0.0615
     26 C         8.894821   -0.036181   7.076097 C.3        1 UNL1     -0.0615
     27 C         2.172719   -9.156563   6.341532 C.ar        1 UNL1     0.1347
     28 C         1.034372   -9.365926   5.583653 C.ar        1 UNL1     0.0342
     29 C         0.769016   -8.355147   4.635457 C.ar        1 UNL1     0.1435
     30 C         1.560566   -7.21337   4.50502 C.ar        1 UNL1     0.0774
     31 O         -0.363237   -8.359794   3.898578 O.3        1 UNL1     -0.4436
     32 C         -0.503356   -7.006505   3.440484 C.3        1 UNL1     0.3143
     33 C         0.89516   -6.425104   3.488832 C.2        1 UNL1     0.2504
     34 C         0.015702   -10.449471   5.803521 C.3        1 UNL1     -0.0327
     35 O         -0.884897   -7.061307   2.060384 O.2        1 UNL1     -0.4528
     36 C         -2.980033   -3.958318   1.435919 C.3        1 UNL1     0.0854
     37 C         -2.602434   -2.441822   1.648473 C.3        1 UNL1     0.0236
     38 C         -2.783537   -1.512419   0.354195 C.3        1 UNL1     0.1131
     39 C         -2.145026   -1.953034   -1.024367 C.3        1 UNL1     0.0200
     40 C         -0.595788   -2.568879   -1.079438 C.3        1 UNL1     0.0661
     41 C         0.776066   -1.87315   -0.364183 C.3        1 UNL1     0.0091
     42 C         2.271721   -2.657397   0.352318 C.3        1 UNL1     0.0661
     43 C         4.084948   -7.773179   7.176566 C.2        1 UNL1     0.2131
     44 O         4.216139   -8.356387   8.237412 O.2        1 UNL1     -0.2851
     45 O         2.576829   -10.136581   7.2458 O.3        1 UNL1     -0.5056
     46 O         1.361742   -5.528105   2.822838 O.2        1 UNL1     -0.2836
     47 C         3.752607   -4.514776   -0.86215 C.3        1 UNL1     -0.0566
     48 O         3.21903   -1.76021   -0.352506 O.3        1 UNL1     -0.3909
     49 C         0.330299   -0.803351   0.607576 C.3        1 UNL1     -0.0577
     50 O         -0.602875   -3.964253   -0.854482 O.3        1 UNL1     -0.3910
     51 O         -3.258637   -4.343635   0.108763 O.3        1 UNL1     -0.3753
     52 C         -1.396656   -2.274493   2.629825 C.3        1 UNL1     -0.0564
     53 O         -2.761205   -0.043645   0.661652 O.3        1 UNL1     -0.4608
     54 C         -2.194719   0.924876   -0.125108 C.2        1 UNL1     0.3042
     55 O         -1.117452   1.493154   0.049225 O.2        1 UNL1     -0.2512
     56 C         -2.997987   1.248493   -1.352604 C.3        1 UNL1     0.0332
     57 C         -3.278465   -2.71088   -1.860526 C.3        1 UNL1     -0.0567
     58 C         -1.3821   -6.279859   4.485148 C.3        1 UNL1     0.0210
     59 C         -4.634469   -4.606802   -0.162707 C.3        1 UNL1     0.0372
     60 C         -1.989006   -4.933518   1.966965 C.2        1 UNL1     -0.0208
     61 C         -1.487822   -6.041613   1.41953 C.2        1 UNL1     0.0882
     62 H         2.642208   -4.693741   0.959746 H        1 UNL1     0.0365
     63 H         3.926711   -5.746962   2.147603 H        1 UNL1     0.0576
     64 H         6.744746   -4.500114   2.118846 H        1 UNL1     0.0615
     65 H         5.486662   -6.876418   3.708898 H        1 UNL1     0.0622
     66 H         -3.892663   -4.101609   2.031419 H        1 UNL1     0.0645
     67 H         -3.399428   -2.057032   2.308243 H        1 UNL1     0.0362
     68 H         -3.871524   -1.602472   0.213852 H        1 UNL1     0.0741
     69 H         -2.079162   -1.087377   -1.669896 H        1 UNL1     0.0359
     70 H         -0.387324   -2.464191   -2.161401 H        1 UNL1     0.0600
     71 H         1.144194   -1.258941   -1.209279 H        1 UNL1     0.0348
     72 H         1.813551   -3.416323   -0.298395 H        1 UNL1     0.0602
     73 H         -1.780565   -4.702006   2.981955 H        1 UNL1     0.0628
     74 H         -1.606197   -6.319699   0.371726 H        1 UNL1     0.1022
     75 H         9.418254   -6.980656   5.067355 H        1 UNL1     0.0279
     76 H         9.266777   -5.346163   4.558644 H        1 UNL1     0.0279
     77 H         8.745982   -5.887709   6.205094 H        1 UNL1     0.0279
     78 H         6.744341   -5.852931   7.010938 H        1 UNL1     0.1553
     79 H         6.109851   -4.280001   5.98647 H        1 UNL1     0.1484
     80 H         2.988624   -2.128477   5.724968 H        1 UNL1     0.0317
     81 H         3.129535   -3.464914   6.858107 H        1 UNL1     0.0317
     82 H         5.516148   -2.870396   7.352406 H        1 UNL1     0.0428
     83 H         4.411848   -1.548874   7.661931 H        1 UNL1     0.0428
     84 H         6.566893   -1.410405   3.995905 H        1 UNL1     0.0428
     85 H         6.902799   -2.75123   5.034403 H        1 UNL1     0.0428
     86 H         5.337993   -3.157113   3.13401 H        1 UNL1     0.0317
     87 H         4.213754   -2.000722   3.682825 H        1 UNL1     0.0317
     88 H         6.65405   0.427886   5.822457 H        1 UNL1     0.0429
     89 H         6.049157   0.032788   7.43312 H        1 UNL1     0.0429
     90 H         7.740347   -1.661558   7.742551 H        1 UNL1     0.0308
     91 H         8.150082   -1.549331   4.702811 H        1 UNL1     0.0233
     92 H         9.257216   -2.388501   5.81885 H        1 UNL1     0.0233
     93 H         7.603088   -2.93347   5.641439 H        1 UNL1     0.0233
     94 H         9.88951   -0.460399   6.901545 H        1 UNL1     0.0233
     95 H         8.764429   0.809008   6.394469 H        1 UNL1     0.0233
     96 H         8.85131   0.330531   8.105464 H        1 UNL1     0.0233
     97 H         -0.977188   -10.045895   5.978244 H        1 UNL1     0.0280
     98 H         -0.078084   -11.112068   4.933219 H        1 UNL1     0.0280
     99 H         0.302475   -11.053242   6.680058 H        1 UNL1     0.0280
     100 H         3.507222   -10.27196   7.286578 H        1 UNL1     0.2922
     101 H         4.82237   -4.4652   -1.064156 H        1 UNL1     0.0236
     102 H         3.171732   -3.955118   -1.594509 H        1 UNL1     0.0236
     103 H         3.483411   -5.569859   -1.036868 H        1 UNL1     0.0236
     104 H         2.864785   -1.603461   -1.249674 H        1 UNL1     0.2098
     105 H         -0.496306   -1.096376   1.249972 H        1 UNL1     0.0234
     106 H         1.132325   -0.364103   1.200654 H        1 UNL1     0.0234
     107 H         0.0   0.0   0.0 H        1 UNL1     0.0234
     108 H         -0.147045   -4.382264   -1.610296 H        1 UNL1     0.2098
     109 H         -1.613813   -2.678794   3.628372 H        1 UNL1     0.0234
     110 H         -0.468398   -2.714855   2.250138 H        1 UNL1     0.0234
     111 H         -1.14534   -1.216887   2.785569 H        1 UNL1     0.0234
     112 H         -4.057664   1.331511   -1.092723 H        1 UNL1     0.0342
     113 H         -2.644863   2.152454   -1.84657 H        1 UNL1     0.0342
     114 H         -2.889501   0.417109   -2.062672 H        1 UNL1     0.0342
     115 H         -2.851985   -3.309964   -2.67686 H        1 UNL1     0.0234
     116 H         -3.905157   -3.373165   -1.259955 H        1 UNL1     0.0234
     117 H         -3.941854   -2.029415   -2.420402 H        1 UNL1     0.0234
     118 H         -2.381126   -6.03171   4.08593 H        1 UNL1     0.0309
     119 H         -1.498379   -6.844178   5.41586 H        1 UNL1     0.0309
     120 H         -0.974848   -5.303917   4.771137 H        1 UNL1     0.0309
     121 H         -4.679472   -5.26246   -1.03187 H        1 UNL1     0.0524
     122 H         -5.133487   -5.127056   0.671771 H        1 UNL1     0.0524
     123 H         -5.161733   -3.67891   -0.365445 H        1 UNL1     0.0524
@<TRIPOS>BOND
     1     1     2    1
     2     1    42    1
     3     2     3    2
     4     3     4    1
     5     4     5    2
     6     5     7    1
     7     6    75    1
     8     6    76    1
     9     6    77    1
    10     7     9   am
    11     9    10    1
    12    10    11    2
    13    10    43    1
    14    11    14    1
    15    11    15    1
    16    12    13   ar
    17    12    27   ar
    18    12    43    1
    19    13    14    1
    20    13    30   ar
    21    14    17    2
    22    15    16    1
    23    16    17    1
    24    16    18    1
    25    16    22    1
    26    18    19    1
    27    19    20    1
    28    20    21    1
    29    21    22    1
    30    23    24    1
    31    23    88    1
    32    23    89    1
    33    24    25    1
    34    24    26    1
    35    24    90    1
    36    25    91    1
    37    25    92    1
    38    25    93    1
    39    26    94    1
    40    26    95    1
    41    26    96    1
    42    27    28   ar
    43    28    29   ar
    44    29    30   ar
    45    29    31    1
    46    30    33    1
    47    31    32    1
    48    32    33    1
    49    32    35    1
    50    34    97    1
    51    34    98    1
    52    34    99    1
    53    35    61    1
    54    36    37    1
    55    36    60    1
    56    37    38    1
    57    38    39    1
    58    39    40    1
    59    40    41    1
    60    41    42    1
    61    45   100    1
    62    47   101    1
    63    47   102    1
    64    47   103    1
    65    48   104    1
    66    49   105    1
    67    49   106    1
    68    49   107    1
    69    50   108    1
    70    51    59    1
    71    52   109    1
    72    52   110    1
    73    52   111    1
    74    53    54    1
    75    54    55    2
    76    54    56    1
    77    56   112    1
    78    56   113    1
    79    56   114    1
    80    57   115    1
    81    57   116    1
    82    57   117    1
    83    58   118    1
    84    58   119    1
    85    58   120    1
    86    59   121    1
    87    59   122    1
    88    59   123    1
    89    60    61    2
    90     1    47    1
    91     1    62    1
    92     2    63    1
    93     3    64    1
    94     4    65    1
    95     5     6    1
    96     7     8    2
    97     9    78    1
    98    15    79    1
    99    18    80    1
   100    18    81    1
   101    19    82    1
   102    19    83    1
   103    20    23    1
   104    21    84    1
   105    21    85    1
   106    22    86    1
   107    22    87    1
   108    27    45    1
   109    28    34    1
   110    32    58    1
   111    33    46    2
   112    36    51    1
   113    36    66    1
   114    37    52    1
   115    37    67    1
   116    38    53    1
   117    38    68    1
   118    42    48    1
   119    42    72    1
   120    43    44    2
   121    60    73    1
   122    61    74    1
   123    39    69    1
   124    39    57    1
   125    40    70    1
   126    40    50    1
   127    41    71    1
   128    41    49    1
