@<TRIPOS>MOLECULE
*****
 123 128 0 0 0
SMALL
GASTEIGER

@<TRIPOS>ATOM
     1 C         -0.931794   -1.811523   3.593198 C.3        1 UNL1     0.0009
     2 C         -1.477999   -3.558964   3.884997 C.2        1 UNL1     -0.0787
     3 C         -2.536054   -4.532631   4.053927 C.2        1 UNL1     -0.0649
     4 C         -2.390689   -6.213607   4.193727 C.2        1 UNL1     -0.0542
     5 C         -3.069577   -7.451475   4.075934 C.2        1 UNL1     0.0115
     6 C         -4.466249   -8.106064   3.89116 C.3        1 UNL1     -0.0348
     7 C         -2.208841   -8.800166   3.944955 C.2        1 UNL1     0.2441
     8 O         -2.034329   -9.571464   4.878321 O.2        1 UNL1     -0.2702
     9 N         -1.888555   -9.168776   2.626739 N.am        1 UNL1     -0.2772
     10 C         -0.711956   -8.57322   2.233993 C.2        1 UNL1     0.1049
     11 C         -0.806604   -7.331508   1.794203 C.2        1 UNL1     0.0801
     12 C         1.649295   -8.177412   2.958677 C.ar        1 UNL1     0.0753
     13 C         1.426401   -6.795365   2.660561 C.ar        1 UNL1     0.0305
     14 C         0.23318   -6.349853   1.944465 C.2        1 UNL1     0.0924
     15 N         -1.893287   -6.611797   1.46608 N.pl3        1 UNL1     -0.3170
     16 C         -1.442336   -5.377157   0.880792 C.3        1 UNL1     0.1275
     17 N         -0.087495   -5.137623   1.501077 N.2        1 UNL1     -0.2557
     18 C         -1.188951   -5.644611   -0.599737 C.3        1 UNL1     0.0016
     19 C         -2.460391   -6.204616   -1.217334 C.3        1 UNL1     0.0026
     20 N         -3.53393   -5.237347   -1.035862 N.3        1 UNL1     -0.3018
     21 C         -3.810701   -4.869219   0.354191 C.3        1 UNL1     0.0026
     22 C         -2.521445   -4.30488   0.953552 C.3        1 UNL1     0.0016
     23 C         -4.702266   -5.533965   -1.840631 C.3        1 UNL1     0.0012
     24 C         -5.60958   -6.544295   -1.121069 C.3        1 UNL1     -0.0339
     25 C         -5.671999   -6.267413   0.390055 C.3        1 UNL1     -0.0615
     26 C         -6.99308   -6.540315   -1.74772 C.3        1 UNL1     -0.0615
     27 C         2.842821   -8.608519   3.532925 C.ar        1 UNL1     0.1347
     28 C         3.897877   -7.759641   3.816317 C.ar        1 UNL1     0.0342
     29 C         3.637163   -6.396811   3.559631 C.ar        1 UNL1     0.1435
     30 C         2.432764   -5.94574   3.018172 C.ar        1 UNL1     0.0774
     31 O         4.602783   -5.459731   3.679902 O.3        1 UNL1     -0.4436
     32 C         4.125736   -4.34643   2.909279 C.3        1 UNL1     0.3143
     33 C         2.621427   -4.519682   2.852244 C.2        1 UNL1     0.2504
     34 C         5.2907   -8.180157   4.19488 C.3        1 UNL1     -0.0327
     35 O         4.380459   -3.160239   3.671723 O.2        1 UNL1     -0.4528
     36 C         4.92615   -0.389801   1.134997 C.3        1 UNL1     0.0854
     37 C         3.967587   0.114209   -0.011586 C.3        1 UNL1     0.0236
     38 C         3.636287   1.682848   0.025248 C.3        1 UNL1     0.1131
     39 C         3.129855   2.347013   1.368632 C.3        1 UNL1     0.0200
     40 C         1.98161   1.584143   2.30778 C.3        1 UNL1     0.0661
     41 C         0.508353   0.94962   1.75596 C.3        1 UNL1     0.0091
     42 C         -0.457609   -0.496617   2.33967 C.3        1 UNL1     0.0661
     43 C         0.602905   -9.148716   2.553835 C.2        1 UNL1     0.2131
     44 O         0.815346   -10.335896   2.385875 O.2        1 UNL1     -0.2851
     45 O         2.961547   -9.963912   3.833346 O.3        1 UNL1     -0.5056
     46 O         1.76941   -3.66946   2.721696 O.2        1 UNL1     -0.2836
     47 C         -1.119811   -0.965551   4.881206 C.3        1 UNL1     -0.0566
     48 O         -1.747739   0.233913   2.371411 O.3        1 UNL1     -0.3909
     49 C         0.5438   0.876084   0.245719 C.3        1 UNL1     -0.0577
     50 O         2.590277   0.680026   3.207682 O.3        1 UNL1     -0.3910
     51 O         5.230386   0.549731   2.141055 O.3        1 UNL1     -0.3753
     52 C         2.887473   -0.955066   -0.37895 C.3        1 UNL1     -0.0564
     53 O         3.026843   2.197952   -1.245804 O.3        1 UNL1     -0.4608
     54 C         2.284312   3.34361   -1.364311 C.2        1 UNL1     0.3042
     55 O         2.69825   4.501784   -1.397883 O.2        1 UNL1     -0.2512
     56 C         0.811767   3.09218   -1.52277 C.3        1 UNL1     0.0332
     57 C         4.403512   2.970393   2.108478 C.3        1 UNL1     -0.0567
     58 C         4.702387   -4.521161   1.485035 C.3        1 UNL1     0.0210
     59 C         6.480658   0.342344   2.796552 C.3        1 UNL1     0.0372
     60 C         4.481312   -1.630367   1.826571 C.2        1 UNL1     -0.0208
     61 C         4.446604   -1.93091   3.125499 C.2        1 UNL1     0.0882
     62 H         0.109091   -2.156874   3.594789 H        1 UNL1     0.0365
     63 H         -0.514635   -4.051321   4.033271 H        1 UNL1     0.0576
     64 H         -3.587713   -4.261009   3.938413 H        1 UNL1     0.0615
     65 H         -1.324959   -6.368184   4.382956 H        1 UNL1     0.0622
     66 H         5.860525   -0.651212   0.618612 H        1 UNL1     0.0645
     67 H         4.581707   0.041008   -0.925948 H        1 UNL1     0.0362
     68 H         4.646585   2.088105   -0.137812 H        1 UNL1     0.0741
     69 H         2.655103   3.290186   1.133169 H        1 UNL1     0.0359
     70 H         1.660397   2.43208   2.942512 H        1 UNL1     0.0600
     71 H         -0.151004   1.825321   1.915194 H        1 UNL1     0.0348
     72 H         0.220909   -0.232523   3.163796 H        1 UNL1     0.0602
     73 H         4.279256   -2.380407   1.102787 H        1 UNL1     0.0628
     74 H         4.58398   -1.207337   3.929743 H        1 UNL1     0.1022
     75 H         -4.726144   -8.732336   4.778443 H        1 UNL1     0.0279
     76 H         -5.314722   -7.428634   3.825954 H        1 UNL1     0.0279
     77 H         -4.481864   -8.854558   3.085422 H        1 UNL1     0.0279
     78 H         -2.619642   -8.848846   1.99489 H        1 UNL1     0.1553
     79 H         -2.787904   -7.016629   1.259435 H        1 UNL1     0.1484
     80 H         -0.886186   -4.709051   -1.085355 H        1 UNL1     0.0317
     81 H         -0.361472   -6.349524   -0.734002 H        1 UNL1     0.0317
     82 H         -2.728437   -7.179397   -0.783901 H        1 UNL1     0.0428
     83 H         -2.257003   -6.389781   -2.272511 H        1 UNL1     0.0428
     84 H         -4.565339   -4.083358   0.457899 H        1 UNL1     0.0428
     85 H         -4.222944   -5.712102   0.925962 H        1 UNL1     0.0428
     86 H         -2.793734   -3.925428   1.920952 H        1 UNL1     0.0317
     87 H         -2.21553   -3.405595   0.405101 H        1 UNL1     0.0317
     88 H         -5.263272   -4.601375   -1.984998 H        1 UNL1     0.0429
     89 H         -4.418552   -5.896166   -2.837171 H        1 UNL1     0.0429
     90 H         -5.214055   -7.555309   -1.274771 H        1 UNL1     0.0308
     91 H         -6.258768   -7.030399   0.910302 H        1 UNL1     0.0233
     92 H         -4.667514   -6.233556   0.818392 H        1 UNL1     0.0233
     93 H         -6.134641   -5.299637   0.618547 H        1 UNL1     0.0233
     94 H         -7.651024   -7.235387   -1.214972 H        1 UNL1     0.0233
     95 H         -7.431684   -5.540909   -1.678613 H        1 UNL1     0.0233
     96 H         -6.955593   -6.837393   -2.799532 H        1 UNL1     0.0233
     97 H         5.32498   -9.207171   4.546019 H        1 UNL1     0.0280
     98 H         5.983593   -8.129907   3.344803 H        1 UNL1     0.0280
     99 H         5.667582   -7.527236   4.999087 H        1 UNL1     0.0280
     100 H         3.245535   -10.146837   4.711703 H        1 UNL1     0.2922
     101 H         -2.124801   -1.114524   5.275487 H        1 UNL1     0.0236
     102 H         -0.888661   0.089539   4.738598 H        1 UNL1     0.0236
     103 H         -0.449239   -1.29288   5.69323 H        1 UNL1     0.0236
     104 H         -1.835593   0.639053   3.256348 H        1 UNL1     0.2098
     105 H         0.067828   1.714825   -0.256055 H        1 UNL1     0.0234
     106 H         1.53107   0.69308   -0.178231 H        1 UNL1     0.0234
     107 H         0.0   0.0   0.0 H        1 UNL1     0.0234
     108 H         3.414433   0.364784   2.789164 H        1 UNL1     0.2098
     109 H         2.238742   -1.200875   0.473363 H        1 UNL1     0.0234
     110 H         2.271182   -0.666976   -1.237397 H        1 UNL1     0.0234
     111 H         3.345951   -1.904207   -0.686967 H        1 UNL1     0.0234
     112 H         0.485525   2.329551   -0.809111 H        1 UNL1     0.0342
     113 H         0.22662   4.004196   -1.414726 H        1 UNL1     0.0342
     114 H         0.637205   2.702668   -2.535179 H        1 UNL1     0.0342
     115 H         5.284436   2.997053   1.452391 H        1 UNL1     0.0234
     116 H         4.245668   3.982049   2.487538 H        1 UNL1     0.0234
     117 H         4.776481   2.349148   2.940878 H        1 UNL1     0.0234
     118 H         4.493088   -5.52393   1.073143 H        1 UNL1     0.0309
     119 H         4.345144   -3.763032   0.78089 H        1 UNL1     0.0309
     120 H         5.796131   -4.462852   1.464297 H        1 UNL1     0.0309
     121 H         6.274307   -0.119599   3.761635 H        1 UNL1     0.0524
     122 H         7.138992   -0.341417   2.23521 H        1 UNL1     0.0524
     123 H         6.993387   1.289776   2.93646 H        1 UNL1     0.0524
@<TRIPOS>BOND
     1     1     2    1
     2     1    42    1
     3     2     3    2
     4     3     4    1
     5     4     5    2
     6     5     7    1
     7     6    75    1
     8     6    76    1
     9     6    77    1
    10     7     9   am
    11     9    10    1
    12    10    11    2
    13    10    43    1
    14    11    14    1
    15    11    15    1
    16    12    13   ar
    17    12    27   ar
    18    12    43    1
    19    13    14    1
    20    13    30   ar
    21    14    17    2
    22    15    16    1
    23    16    17    1
    24    16    18    1
    25    16    22    1
    26    18    19    1
    27    19    20    1
    28    20    21    1
    29    21    22    1
    30    23    24    1
    31    23    88    1
    32    23    89    1
    33    24    25    1
    34    24    26    1
    35    24    90    1
    36    25    91    1
    37    25    92    1
    38    25    93    1
    39    26    94    1
    40    26    95    1
    41    26    96    1
    42    27    28   ar
    43    28    29   ar
    44    29    30   ar
    45    29    31    1
    46    30    33    1
    47    31    32    1
    48    32    33    1
    49    32    35    1
    50    34    97    1
    51    34    98    1
    52    34    99    1
    53    35    61    1
    54    36    37    1
    55    36    60    1
    56    37    38    1
    57    38    39    1
    58    39    40    1
    59    40    41    1
    60    41    42    1
    61    45   100    1
    62    47   101    1
    63    47   102    1
    64    47   103    1
    65    48   104    1
    66    49   105    1
    67    49   106    1
    68    49   107    1
    69    50   108    1
    70    51    59    1
    71    52   109    1
    72    52   110    1
    73    52   111    1
    74    53    54    1
    75    54    55    2
    76    54    56    1
    77    56   112    1
    78    56   113    1
    79    56   114    1
    80    57   115    1
    81    57   116    1
    82    57   117    1
    83    58   118    1
    84    58   119    1
    85    58   120    1
    86    59   121    1
    87    59   122    1
    88    59   123    1
    89    60    61    2
    90     1    47    1
    91     1    62    1
    92     2    63    1
    93     3    64    1
    94     4    65    1
    95     5     6    1
    96     7     8    2
    97     9    78    1
    98    15    79    1
    99    18    80    1
   100    18    81    1
   101    19    82    1
   102    19    83    1
   103    20    23    1
   104    21    84    1
   105    21    85    1
   106    22    86    1
   107    22    87    1
   108    27    45    1
   109    28    34    1
   110    32    58    1
   111    33    46    2
   112    36    51    1
   113    36    66    1
   114    37    52    1
   115    37    67    1
   116    38    53    1
   117    38    68    1
   118    42    48    1
   119    42    72    1
   120    43    44    2
   121    60    73    1
   122    61    74    1
   123    39    69    1
   124    39    57    1
   125    40    70    1
   126    40    50    1
   127    41    71    1
   128    41    49    1
