@<TRIPOS>MOLECULE
*****
 123 128 0 0 0
SMALL
GASTEIGER

@<TRIPOS>ATOM
     1 C         0.974597   -4.174501   0.948855 C.3        1 UNL1     0.0009
     2 C         0.924541   -5.158836   2.519083 C.2        1 UNL1     -0.0787
     3 C         1.537475   -5.567549   3.765402 C.2        1 UNL1     -0.0649
     4 C         0.865932   -6.523113   4.991079 C.2        1 UNL1     -0.0542
     5 C         0.950433   -6.88656   6.35777 C.2        1 UNL1     0.0115
     6 C         1.825895   -6.774091   7.636143 C.3        1 UNL1     -0.0348
     7 C         -0.313957   -7.588554   7.054556 C.2        1 UNL1     0.2441
     8 O         -0.37238   -8.791383   7.269762 O.2        1 UNL1     -0.2702
     9 N         -1.234675   -6.699693   7.636241 N.am        1 UNL1     -0.2772
     10 C         -2.171515   -6.304081   6.70934 C.2        1 UNL1     0.1049
     11 C         -1.818263   -5.31278   5.911369 C.2        1 UNL1     0.0801
     12 C         -3.744954   -7.188619   4.977516 C.ar        1 UNL1     0.0753
     13 C         -3.177142   -6.226365   4.082941 C.ar        1 UNL1     0.0305
     14 C         -2.287629   -5.169775   4.559844 C.2        1 UNL1     0.0924
     15 N         -0.768362   -4.476826   5.984967 N.pl3        1 UNL1     -0.3170
     16 C         -0.936813   -3.469544   4.971427 C.3        1 UNL1     0.1275
     17 N         -1.754942   -4.14603   3.898695 N.2        1 UNL1     -0.2557
     18 C         -1.828247   -2.380319   5.560186 C.3        1 UNL1     0.0016
     19 C         -1.19471   -1.876232   6.847088 C.3        1 UNL1     0.0026
     20 N         0.132832   -1.359775   6.543882 N.3        1 UNL1     -0.3018
     21 C         1.044706   -2.318706   5.916741 C.3        1 UNL1     0.0026
     22 C         0.390481   -2.80854   4.623703 C.3        1 UNL1     0.0016
     23 C         0.700141   -0.588827   7.632203 C.3        1 UNL1     0.0012
     24 C         2.105226   -1.103818   7.981882 C.3        1 UNL1     -0.0339
     25 C         2.570565   -0.582437   9.351436 C.3        1 UNL1     -0.0615
     26 C         2.133486   -2.621197   7.922369 C.3        1 UNL1     -0.0615
     27 C         -4.685206   -8.116994   4.536875 C.ar        1 UNL1     0.1347
     28 C         -5.162928   -8.154642   3.239024 C.ar        1 UNL1     0.0342
     29 C         -4.553728   -7.229783   2.364568 C.ar        1 UNL1     0.1435
     30 C         -3.584238   -6.317769   2.783544 C.ar        1 UNL1     0.0774
     31 O         -4.988045   -7.068261   1.095598 O.3        1 UNL1     -0.4436
     32 C         -4.48681   -5.781997   0.70169 C.3        1 UNL1     0.3143
     33 C         -3.297329   -5.52672   1.605117 C.2        1 UNL1     0.2504
     34 C         -6.344941   -8.948907   2.75727 C.3        1 UNL1     -0.0327
     35 O         -3.977709   -5.913183   -0.631299 O.2        1 UNL1     -0.4528
     36 C         -4.440822   -2.516519   -2.261112 C.3        1 UNL1     0.0854
     37 C         -3.897944   -1.108733   -1.801827 C.3        1 UNL1     0.0236
     38 C         -3.039946   -0.322459   -2.905166 C.3        1 UNL1     0.1131
     39 C         -1.845632   -1.054936   -3.639579 C.3        1 UNL1     0.0200
     40 C         -0.778485   -2.003874   -2.777517 C.3        1 UNL1     0.0661
     41 C         0.025039   -1.553003   -1.353201 C.3        1 UNL1     0.0091
     42 C         0.553107   -2.561439   0.08541 C.3        1 UNL1     0.0661
     43 C         -3.366158   -7.107585   6.410068 C.2        1 UNL1     0.2131
     44 O         -4.038035   -7.575437   7.311419 O.2        1 UNL1     -0.2851
     45 O         -5.154326   -9.048344   5.460969 O.3        1 UNL1     -0.5056
     46 O         -2.321819   -4.842261   1.391222 O.2        1 UNL1     -0.2836
     47 C         1.942759   -4.833551   -0.070114 C.3        1 UNL1     -0.0566
     48 O         1.920379   -1.988959   0.129564 O.3        1 UNL1     -0.3909
     49 C         -0.623881   -0.303173   -0.801548 C.3        1 UNL1     -0.0577
     50 O         -1.265399   -3.325541   -2.659899 O.3        1 UNL1     -0.3910
     51 O         -3.9666   -2.984209   -3.503614 O.3        1 UNL1     -0.3753
     52 C         -3.511042   -1.100355   -0.28684 C.3        1 UNL1     -0.0564
     53 O         -2.837596   1.129895   -2.585717 O.3        1 UNL1     -0.4608
     54 C         -1.763214   1.887099   -2.973372 C.2        1 UNL1     0.3042
     55 O         -0.841143   2.292271   -2.266648 O.2        1 UNL1     -0.2512
     56 C         -1.732417   2.177375   -4.446975 C.3        1 UNL1     0.0332
     57 C         -2.410341   -1.633571   -5.019601 C.3        1 UNL1     -0.0567
     58 C         -5.596667   -4.758623   1.037029 C.3        1 UNL1     0.0210
     59 C         -3.69414   -1.964361   -4.463583 C.3        1 UNL1     0.0372
     60 C         -4.237977   -3.618755   -1.281779 C.2        1 UNL1     -0.0208
     61 C         -3.806838   -4.867752   -1.463082 C.2        1 UNL1     0.0882
     62 H         -0.030272   -4.54235   0.708777 H        1 UNL1     0.0365
     63 H         -0.009884   -5.707898   2.385473 H        1 UNL1     0.0576
     64 H         2.480313   -5.135602   4.108312 H        1 UNL1     0.0615
     65 H         -0.017897   -6.964575   4.522634 H        1 UNL1     0.0622
     66 H         -5.528575   -2.38038   -2.340516 H        1 UNL1     0.0645
     67 H         -4.803056   -0.479977   -1.738607 H        1 UNL1     0.0362
     68 H         -3.814123   -0.182777   -3.675011 H        1 UNL1     0.0741
     69 H         -1.19744   -0.308714   -4.07936 H        1 UNL1     0.0359
     70 H         0.046892   -2.077449   -3.511273 H        1 UNL1     0.0600
     71 H         0.960211   -1.141314   -1.780895 H        1 UNL1     0.0348
     72 H         0.396559   -3.270231   -0.740677 H        1 UNL1     0.0602
     73 H         -4.619987   -3.32115   -0.336926 H        1 UNL1     0.0628
     74 H         -3.34798   -5.234452   -2.381895 H        1 UNL1     0.1022
     75 H         2.626494   -6.008142   7.496867 H        1 UNL1     0.0279
     76 H         1.325491   -6.428599   8.537975 H        1 UNL1     0.0279
     77 H         2.422016   -7.679041   7.824306 H        1 UNL1     0.0279
     78 H         -0.748572   -5.864554   7.956119 H        1 UNL1     0.1553
     79 H         -0.237049   -4.322305   6.822082 H        1 UNL1     0.1484
     80 H         -1.939428   -1.573513   4.8257 H        1 UNL1     0.0317
     81 H         -2.834718   -2.763661   5.759471 H        1 UNL1     0.0317
     82 H         -1.147483   -2.663932   7.613385 H        1 UNL1     0.0428
     83 H         -1.84739   -1.10171   7.251038 H        1 UNL1     0.0428
     84 H         2.006549   -1.884344   5.626915 H        1 UNL1     0.0428
     85 H         1.315667   -3.13358   6.602216 H        1 UNL1     0.0428
     86 H         1.136806   -3.401312   4.128114 H        1 UNL1     0.0317
     87 H         0.238962   -1.966024   3.937915 H        1 UNL1     0.0317
     88 H         0.782333   0.455684   7.304277 H        1 UNL1     0.0429
     89 H         0.044304   -0.598952   8.512288 H        1 UNL1     0.0429
     90 H         2.813734   -0.760883   7.218583 H        1 UNL1     0.0308
     91 H         2.847428   0.47489   9.301362 H        1 UNL1     0.0233
     92 H         1.786587   -0.712765   10.101104 H        1 UNL1     0.0233
     93 H         3.447054   -1.123287   9.728378 H        1 UNL1     0.0233
     94 H         1.127583   -3.0105   7.731477 H        1 UNL1     0.0233
     95 H         2.783041   -2.951099   7.106768 H        1 UNL1     0.0233
     96 H         2.498087   -3.050592   8.859735 H        1 UNL1     0.0233
     97 H         -7.126414   -8.312183   2.353399 H        1 UNL1     0.0280
     98 H         -6.075961   -9.643103   1.950425 H        1 UNL1     0.0280
     99 H         -6.768236   -9.525996   3.595652 H        1 UNL1     0.0280
     100 H         -5.383183   -8.687057   6.299253 H        1 UNL1     0.2922
     101 H         2.106835   -5.876468   0.200179 H        1 UNL1     0.0236
     102 H         2.879183   -4.288828   -0.185746 H        1 UNL1     0.0236
     103 H         1.512736   -4.871771   -1.084911 H        1 UNL1     0.0236
     104 H         2.453718   -2.545065   0.730618 H        1 UNL1     0.2098
     105 H         -0.68276   0.521363   -1.507584 H        1 UNL1     0.0234
     106 H         -1.59183   -0.464101   -0.327096 H        1 UNL1     0.0234
     107 H         0.0   0.0   0.0 H        1 UNL1     0.0234
     108 H         -1.56876   -3.442058   -1.73894 H        1 UNL1     0.2098
     109 H         -2.636305   -0.466662   -0.084405 H        1 UNL1     0.0234
     110 H         -4.338048   -0.803061   0.366934 H        1 UNL1     0.0234
     111 H         -3.239426   -2.103811   0.067063 H        1 UNL1     0.0234
     112 H         -0.696246   2.267194   -4.787016 H        1 UNL1     0.0342
     113 H         -2.269142   1.425656   -5.023767 H        1 UNL1     0.0342
     114 H         -2.227532   3.143391   -4.616796 H        1 UNL1     0.0342
     115 H         -2.66663   -2.699109   -4.941286 H        1 UNL1     0.0234
     116 H         -3.292958   -1.110098   -5.392444 H        1 UNL1     0.0234
     117 H         -1.659526   -1.65386   -5.828184 H        1 UNL1     0.0234
     118 H         -6.413896   -4.775196   0.294823 H        1 UNL1     0.0309
     119 H         -6.01884   -4.895146   2.037696 H        1 UNL1     0.0309
     120 H         -5.240076   -3.723565   0.996983 H        1 UNL1     0.0309
     121 H         -3.315228   -1.096662   -3.92425 H        1 UNL1     0.0524
     122 H         -2.920904   -2.268182   -5.188729 H        1 UNL1     0.0524
     123 H         -4.600481   -1.704057   -5.002918 H        1 UNL1     0.0524
@<TRIPOS>BOND
     1     1     2    1
     2     1    42    1
     3     2     3    2
     4     3     4    1
     5     4     5    2
     6     5     7    1
     7     6    75    1
     8     6    76    1
     9     6    77    1
    10     7     9   am
    11     9    10    1
    12    10    11    2
    13    10    43    1
    14    11    14    1
    15    11    15    1
    16    12    13   ar
    17    12    27   ar
    18    12    43    1
    19    13    14    1
    20    13    30   ar
    21    14    17    2
    22    15    16    1
    23    16    17    1
    24    16    18    1
    25    16    22    1
    26    18    19    1
    27    19    20    1
    28    20    21    1
    29    21    22    1
    30    23    24    1
    31    23    88    1
    32    23    89    1
    33    24    25    1
    34    24    26    1
    35    24    90    1
    36    25    91    1
    37    25    92    1
    38    25    93    1
    39    26    94    1
    40    26    95    1
    41    26    96    1
    42    27    28   ar
    43    28    29   ar
    44    29    30   ar
    45    29    31    1
    46    30    33    1
    47    31    32    1
    48    32    33    1
    49    32    35    1
    50    34    97    1
    51    34    98    1
    52    34    99    1
    53    35    61    1
    54    36    37    1
    55    36    60    1
    56    37    38    1
    57    38    39    1
    58    39    40    1
    59    40    41    1
    60    41    42    1
    61    45   100    1
    62    47   101    1
    63    47   102    1
    64    47   103    1
    65    48   104    1
    66    49   105    1
    67    49   106    1
    68    49   107    1
    69    50   108    1
    70    51    59    1
    71    52   109    1
    72    52   110    1
    73    52   111    1
    74    53    54    1
    75    54    55    2
    76    54    56    1
    77    56   112    1
    78    56   113    1
    79    56   114    1
    80    57   115    1
    81    57   116    1
    82    57   117    1
    83    58   118    1
    84    58   119    1
    85    58   120    1
    86    59   121    1
    87    59   122    1
    88    59   123    1
    89    60    61    2
    90     1    47    1
    91     1    62    1
    92     2    63    1
    93     3    64    1
    94     4    65    1
    95     5     6    1
    96     7     8    2
    97     9    78    1
    98    15    79    1
    99    18    80    1
   100    18    81    1
   101    19    82    1
   102    19    83    1
   103    20    23    1
   104    21    84    1
   105    21    85    1
   106    22    86    1
   107    22    87    1
   108    27    45    1
   109    28    34    1
   110    32    58    1
   111    33    46    2
   112    36    51    1
   113    36    66    1
   114    37    52    1
   115    37    67    1
   116    38    53    1
   117    38    68    1
   118    42    48    1
   119    42    72    1
   120    43    44    2
   121    60    73    1
   122    61    74    1
   123    39    69    1
   124    39    57    1
   125    40    70    1
   126    40    50    1
   127    41    71    1
   128    41    49    1
