@<TRIPOS>MOLECULE
*****
 123 128 0 0 0
SMALL
GASTEIGER

@<TRIPOS>ATOM
     1 C         2.389818   3.164545   -3.643354 C.3        1 UNL1     0.0009
     2 C         2.728412   3.331558   -5.458429 C.2        1 UNL1     -0.0787
     3 C         3.656825   3.319752   -6.569265 C.2        1 UNL1     -0.0649
     4 C         3.30484   3.439999   -8.220932 C.2        1 UNL1     -0.0542
     5 C         3.784514   3.194397   -9.531149 C.2        1 UNL1     0.0115
     6 C         5.037863   2.790406   -10.355304 C.3        1 UNL1     -0.0348
     7 C         2.737927   3.160172   -10.747896 C.2        1 UNL1     0.2441
     8 O         2.594982   4.09072   -11.529032 O.2        1 UNL1     -0.2702
     9 N         2.185213   1.895312   -11.013957 N.am        1 UNL1     -0.2772
     10 C         1.056987   1.694422   -10.252334 C.2        1 UNL1     0.1049
     11 C         1.256412   1.274725   -9.016087 C.2        1 UNL1     0.0801
     12 C         -1.100062   2.768428   -9.580779 C.ar        1 UNL1     0.0753
     13 C         -0.735514   2.473198   -8.228539 C.ar        1 UNL1     0.0305
     14 C         0.392626   1.599637   -7.913508 C.2        1 UNL1     0.0924
     15 N         2.373002   0.806928   -8.432204 N.pl3        1 UNL1     -0.3170
     16 C         2.015828   0.323645   -7.124871 C.3        1 UNL1     0.1275
     17 N         0.809079   1.142364   -6.736055 N.2        1 UNL1     -0.2557
     18 C         1.519305   -1.1092   -7.29256 C.3        1 UNL1     0.0016
     19 C         2.600935   -1.92048   -7.987896 C.3        1 UNL1     0.0026
     20 N         3.811278   -1.87665   -7.179083 N.3        1 UNL1     -0.3018
     21 C         4.331537   -0.534353   -6.910869 C.3        1 UNL1     0.0026
     22 C         3.230426   0.261623   -6.208109 C.3        1 UNL1     0.0016
     23 C         4.801039   -2.851624   -7.59193 C.3        1 UNL1     0.0012
     24 C         4.333608   -4.273848   -7.244736 C.3        1 UNL1     -0.0339
     25 C         5.517916   -5.178289   -6.865978 C.3        1 UNL1     -0.0615
     26 C         3.292199   -4.224689   -6.140277 C.3        1 UNL1     -0.0615
     27 C         -2.246809   3.502113   -9.875388 C.ar        1 UNL1     0.1347
     28 C         -3.124662   3.957802   -8.908035 C.ar        1 UNL1     0.0342
     29 C         -2.719742   3.697511   -7.581591 C.ar        1 UNL1     0.1435
     30 C         -1.554923   2.995112   -7.270056 C.ar        1 UNL1     0.0774
     31 O         -3.521199   3.980788   -6.531626 O.3        1 UNL1     -0.4436
     32 C         -3.011738   3.17457   -5.458623 C.3        1 UNL1     0.3143
     33 C         -1.56891   2.892304   -5.825757 C.2        1 UNL1     0.2504
     34 C         -4.493301   4.52763   -9.157485 C.3        1 UNL1     -0.0327
     35 O         -2.990524   3.993844   -4.283211 O.2        1 UNL1     -0.4528
     36 C         -3.509855   1.630981   -1.358274 C.3        1 UNL1     0.0854
     37 C         -2.665293   0.367729   -0.93586 C.3        1 UNL1     0.0236
     38 C         -2.121128   0.392087   0.572462 C.3        1 UNL1     0.1131
     39 C         -1.341998   1.661317   1.105642 C.3        1 UNL1     0.0200
     40 C         -0.186303   2.402742   0.158491 C.3        1 UNL1     0.0661
     41 C         1.092393   1.624998   -0.640046 C.3        1 UNL1     0.0091
     42 C         1.925307   2.02582   -2.224659 C.3        1 UNL1     0.0661
     43 C         -0.264777   2.191058   -10.663 C.2        1 UNL1     0.2131
     44 O         -0.659098   2.028464   -11.803531 O.2        1 UNL1     -0.2851
     45 O         -2.505277   3.784888   -11.215041 O.3        1 UNL1     -0.5056
     46 O         -0.636298   2.657529   -5.090251 O.2        1 UNL1     -0.2836
     47 C         2.873718   4.430233   -2.885819 C.3        1 UNL1     -0.0566
     48 O         3.294247   1.88411   -1.672357 O.3        1 UNL1     -0.3909
     49 C         0.831732   0.135186   -0.643091 C.3        1 UNL1     -0.0577
     50 O         -0.777751   3.361102   -0.695593 O.3        1 UNL1     -0.3910
     51 O         -3.536027   2.692654   -0.431129 O.3        1 UNL1     -0.3753
     52 C         -1.804967   -0.179853   -2.121162 C.3        1 UNL1     -0.0564
     53 O         -1.635074   -0.9425   1.057184 O.3        1 UNL1     -0.4608
     54 C         -0.797762   -1.144571   2.123019 C.2        1 UNL1     0.3042
     55 O         0.431944   -1.10385   2.12496 O.2        1 UNL1     -0.2512
     56 C         -1.520045   -1.383765   3.418321 C.3        1 UNL1     0.0332
     57 C         -2.399676   2.595287   1.858764 C.3        1 UNL1     -0.0567
     58 C         -3.804448   1.847218   -5.494358 C.3        1 UNL1     0.0210
     59 C         -3.394916   3.991974   -1.003599 C.3        1 UNL1     0.0372
     60 C         -3.144291   2.22012   -2.675254 C.2        1 UNL1     -0.0208
     61 C         -2.965625   3.492324   -3.033474 C.2        1 UNL1     0.0882
     62 H         1.322551   3.311496   -3.848435 H        1 UNL1     0.0365
     63 H         1.738036   3.60867   -5.825627 H        1 UNL1     0.0576
     64 H         4.708304   3.056838   -6.433709 H        1 UNL1     0.0615
     65 H         2.266081   3.780623   -8.241896 H        1 UNL1     0.0622
     66 H         -4.535294   1.252025   -1.47191 H        1 UNL1     0.0645
     67 H         -3.40799   -0.447549   -0.888096 H        1 UNL1     0.0362
     68 H         -3.07948   0.389325   1.113827 H        1 UNL1     0.0741
     69 H         -0.781516   1.380609   1.987385 H        1 UNL1     0.0359
     70 H         0.335054   3.002882   0.928606 H        1 UNL1     0.0600
     71 H         1.881045   1.705761   0.133558 H        1 UNL1     0.0348
     72 H         1.414027   2.946948   -1.909331 H        1 UNL1     0.0602
     73 H         -3.152067   1.457067   -3.413453 H        1 UNL1     0.0628
     74 H         -2.886557   4.324778   -2.333469 H        1 UNL1     0.1022
     75 H         5.927207   3.383639   -10.032542 H        1 UNL1     0.0279
     76 H         5.385019   1.766107   -10.239712 H        1 UNL1     0.0279
     77 H         4.960119   3.075291   -11.414784 H        1 UNL1     0.0279
     78 H         2.855235   1.170251   -10.7661 H        1 UNL1     0.1553
     79 H         3.165169   0.461195   -8.941982 H        1 UNL1     0.1484
     80 H         1.280812   -1.522794   -6.305227 H        1 UNL1     0.0317
     81 H         0.59273   -1.136481   -7.875969 H        1 UNL1     0.0317
     82 H         2.79258   -1.554287   -9.007252 H        1 UNL1     0.0428
     83 H         2.225456   -2.938183   -8.099009 H        1 UNL1     0.0428
     84 H         5.19339   -0.524649   -6.236387 H        1 UNL1     0.0428
     85 H         4.702313   -0.049542   -7.824543 H        1 UNL1     0.0428
     86 H         3.687423   1.186929   -5.909866 H        1 UNL1     0.0317
     87 H         2.974913   -0.214486   -5.253578 H        1 UNL1     0.0317
     88 H         4.918859   -2.778566   -8.681001 H        1 UNL1     0.0429
     89 H         5.781439   -2.637415   -7.147291 H        1 UNL1     0.0429
     90 H         3.827077   -4.707922   -8.114919 H        1 UNL1     0.0308
     91 H         6.17662   -5.350563   -7.722443 H        1 UNL1     0.0233
     92 H         6.096672   -4.73612   -6.051646 H        1 UNL1     0.0233
     93 H         5.193743   -6.16393   -6.510646 H        1 UNL1     0.0233
     94 H         3.239999   -5.190996   -5.627089 H        1 UNL1     0.0233
     95 H         3.565775   -3.465403   -5.402304 H        1 UNL1     0.0233
     96 H         2.300482   -3.990123   -6.537069 H        1 UNL1     0.0233
     97 H         -5.209988   3.760128   -9.434125 H        1 UNL1     0.0280
     98 H         -4.906469   5.017326   -8.265999 H        1 UNL1     0.0280
     99 H         -4.442776   5.26436   -9.97588 H        1 UNL1     0.0280
     100 H         -2.853999   3.062684   -11.70742 H        1 UNL1     0.2922
     101 H         2.016647   5.045599   -2.613038 H        1 UNL1     0.0236
     102 H         3.625874   4.996536   -3.434039 H        1 UNL1     0.0236
     103 H         3.355123   4.179553   -1.925819 H        1 UNL1     0.0236
     104 H         3.562167   2.755675   -1.320842 H        1 UNL1     0.2098
     105 H         0.569807   -0.272928   -1.61605 H        1 UNL1     0.0234
     106 H         1.614811   -0.465057   -0.180032 H        1 UNL1     0.0234
     107 H         0.0   -0.0   0.0 H        1 UNL1     0.0234
     108 H         -1.241296   2.872561   -1.402857 H        1 UNL1     0.2098
     109 H         -2.350863   -0.918076   -2.725096 H        1 UNL1     0.0234
     110 H         -1.416325   0.610726   -2.772075 H        1 UNL1     0.0234
     111 H         -0.90451   -0.696341   -1.762885 H        1 UNL1     0.0234
     112 H         -0.796846   -1.516105   4.228763 H        1 UNL1     0.0342
     113 H         -2.223205   -0.584815   3.64873 H        1 UNL1     0.0342
     114 H         -2.094333   -2.315668   3.323909 H        1 UNL1     0.0342
     115 H         -2.967542   2.039629   2.617684 H        1 UNL1     0.0234
     116 H         -1.954815   3.462336   2.35108 H        1 UNL1     0.0234
     117 H         -3.212878   2.954864   1.205045 H        1 UNL1     0.0234
     118 H         -4.475498   1.741511   -4.624 H        1 UNL1     0.0309
     119 H         -4.38608   1.718755   -6.412728 H        1 UNL1     0.0309
     120 H         -3.155296   0.967824   -5.421047 H        1 UNL1     0.0309
     121 H         -2.975896   4.645435   -0.238899 H        1 UNL1     0.0524
     122 H         -2.702136   3.998162   -1.861535 H        1 UNL1     0.0524
     123 H         -4.361519   4.366652   -1.328236 H        1 UNL1     0.0524
@<TRIPOS>BOND
     1     1     2    1
     2     1    42    1
     3     2     3    2
     4     3     4    1
     5     4     5    2
     6     5     7    1
     7     6    75    1
     8     6    76    1
     9     6    77    1
    10     7     9   am
    11     9    10    1
    12    10    11    2
    13    10    43    1
    14    11    14    1
    15    11    15    1
    16    12    13   ar
    17    12    27   ar
    18    12    43    1
    19    13    14    1
    20    13    30   ar
    21    14    17    2
    22    15    16    1
    23    16    17    1
    24    16    18    1
    25    16    22    1
    26    18    19    1
    27    19    20    1
    28    20    21    1
    29    21    22    1
    30    23    24    1
    31    23    88    1
    32    23    89    1
    33    24    25    1
    34    24    26    1
    35    24    90    1
    36    25    91    1
    37    25    92    1
    38    25    93    1
    39    26    94    1
    40    26    95    1
    41    26    96    1
    42    27    28   ar
    43    28    29   ar
    44    29    30   ar
    45    29    31    1
    46    30    33    1
    47    31    32    1
    48    32    33    1
    49    32    35    1
    50    34    97    1
    51    34    98    1
    52    34    99    1
    53    35    61    1
    54    36    37    1
    55    36    60    1
    56    37    38    1
    57    38    39    1
    58    39    40    1
    59    40    41    1
    60    41    42    1
    61    45   100    1
    62    47   101    1
    63    47   102    1
    64    47   103    1
    65    48   104    1
    66    49   105    1
    67    49   106    1
    68    49   107    1
    69    50   108    1
    70    51    59    1
    71    52   109    1
    72    52   110    1
    73    52   111    1
    74    53    54    1
    75    54    55    2
    76    54    56    1
    77    56   112    1
    78    56   113    1
    79    56   114    1
    80    57   115    1
    81    57   116    1
    82    57   117    1
    83    58   118    1
    84    58   119    1
    85    58   120    1
    86    59   121    1
    87    59   122    1
    88    59   123    1
    89    60    61    2
    90     1    47    1
    91     1    62    1
    92     2    63    1
    93     3    64    1
    94     4    65    1
    95     5     6    1
    96     7     8    2
    97     9    78    1
    98    15    79    1
    99    18    80    1
   100    18    81    1
   101    19    82    1
   102    19    83    1
   103    20    23    1
   104    21    84    1
   105    21    85    1
   106    22    86    1
   107    22    87    1
   108    27    45    1
   109    28    34    1
   110    32    58    1
   111    33    46    2
   112    36    51    1
   113    36    66    1
   114    37    52    1
   115    37    67    1
   116    38    53    1
   117    38    68    1
   118    42    48    1
   119    42    72    1
   120    43    44    2
   121    60    73    1
   122    61    74    1
   123    39    69    1
   124    39    57    1
   125    40    70    1
   126    40    50    1
   127    41    71    1
   128    41    49    1
