@<TRIPOS>MOLECULE
*****
 123 128 0 0 0
SMALL
GASTEIGER

@<TRIPOS>ATOM
     1 C         5.163993   1.758647   0.490758 C.3        1 UNL1     0.0009
     2 C         6.597822   2.570478   -0.359007 C.2        1 UNL1     -0.0787
     3 C         7.879418   2.477198   -1.025983 C.2        1 UNL1     -0.0649
     4 C         8.752936   3.716333   -1.779554 C.2        1 UNL1     -0.0542
     5 C         9.77141   4.01378   -2.718337 C.2        1 UNL1     0.0115
     6 C         10.900577   3.393273   -3.586251 C.3        1 UNL1     -0.0348
     7 C         9.862277   5.498618   -3.32165 C.2        1 UNL1     0.2441
     8 O         10.684261   6.321641   -2.942832 O.2        1 UNL1     -0.2702
     9 N         9.110552   5.706148   -4.491262 N.am        1 UNL1     -0.2772
     10 C         7.82706   6.088693   -4.17562 C.2        1 UNL1     0.1049
     11 C         6.98412   5.114374   -3.885145 C.2        1 UNL1     0.0801
     12 C         6.525511   7.688746   -2.760298 C.ar        1 UNL1     0.0753
     13 C         5.769845   6.557816   -2.314683 C.ar        1 UNL1     0.0305
     14 C         5.889753   5.253857   -2.963038 C.2        1 UNL1     0.0924
     15 N         7.110174   3.786083   -4.04726 N.pl3        1 UNL1     -0.3170
     16 C         5.842182   3.182818   -3.73338 C.3        1 UNL1     0.1275
     17 N         5.20402   4.134182   -2.750843 N.2        1 UNL1     -0.2557
     18 C         4.988151   3.24238   -4.996228 C.3        1 UNL1     0.0016
     19 C         5.743946   2.562801   -6.126952 C.3        1 UNL1     0.0026
     20 N         6.018096   1.184584   -5.744347 N.3        1 UNL1     -0.3018
     21 C         6.782888   1.023512   -4.505994 C.3        1 UNL1     0.0026
     22 C         6.003206   1.709471   -3.382852 C.3        1 UNL1     0.0016
     23 C         6.463896   0.368685   -6.8562 C.3        1 UNL1     0.0012
     24 C         5.308326   0.118271   -7.837885 C.3        1 UNL1     -0.0339
     25 C         5.340419   1.113092   -9.009789 C.3        1 UNL1     -0.0615
     26 C         5.340894   -1.320076   -8.324585 C.3        1 UNL1     -0.0615
     27 C         6.317891   8.954696   -2.217728 C.ar        1 UNL1     0.1347
     28 C         5.358895   9.219558   -1.256362 C.ar        1 UNL1     0.0342
     29 C         4.660753   8.08222   -0.79786 C.ar        1 UNL1     0.1435
     30 C         4.883222   6.8019   -1.3063 C.ar        1 UNL1     0.0774
     31 O         3.620157   8.191116   0.05672 O.3        1 UNL1     -0.4436
     32 C         2.901672   6.95668   -0.087567 C.3        1 UNL1     0.3143
     33 C         3.917194   5.967468   -0.622721 C.2        1 UNL1     0.2504
     34 C         4.908755   10.583486   -0.81232 C.3        1 UNL1     -0.0327
     35 O         2.543284   6.516124   1.228002 O.2        1 UNL1     -0.4528
     36 C         -0.694893   4.576119   0.829658 C.3        1 UNL1     0.0854
     37 C         -0.997553   3.316692   -0.070211 C.3        1 UNL1     0.0236
     38 C         -1.594079   2.052316   0.715444 C.3        1 UNL1     0.1131
     39 C         -0.865833   1.520477   2.015088 C.3        1 UNL1     0.0200
     40 C         0.795777   1.3793   2.054583 C.3        1 UNL1     0.0661
     41 C         1.756244   0.615611   0.883305 C.3        1 UNL1     0.0091
     42 C         3.46239   0.983983   0.318706 C.3        1 UNL1     0.0661
     43 C         7.475186   7.486051   -3.88248 C.2        1 UNL1     0.2131
     44 O         7.87207   8.38677   -4.599366 O.2        1 UNL1     -0.2851
     45 O         7.127003   9.992981   -2.674609 O.3        1 UNL1     -0.5056
     46 O         3.936517   4.763697   -0.494595 O.2        1 UNL1     -0.2836
     47 C         5.562688   1.327087   1.927693 C.3        1 UNL1     -0.0566
     48 O         3.914801   -0.426089   0.397033 O.3        1 UNL1     -0.3909
     49 C         0.921663   0.383498   -0.35649 C.3        1 UNL1     -0.0577
     50 O         1.393032   2.597905   2.449564 O.3        1 UNL1     -0.3910
     51 O         -0.817327   4.383069   2.220763 O.3        1 UNL1     -0.3753
     52 C         0.046379   3.161543   -1.223937 C.3        1 UNL1     -0.0564
     53 O         -2.194636   1.01369   -0.186173 O.3        1 UNL1     -0.4608
     54 C         -2.425264   -0.294425   0.150836 C.2        1 UNL1     0.3042
     55 O         -1.853852   -1.291066   -0.289656 O.2        1 UNL1     -0.2512
     56 C         -3.463951   -0.465199   1.222601 C.3        1 UNL1     0.0332
     57 C         -1.58761   2.184777   3.278384 C.3        1 UNL1     -0.0567
     58 C         1.82493   7.201255   -1.170313 C.3        1 UNL1     0.0210
     59 C         -1.133071   5.55961   2.963677 C.3        1 UNL1     0.0372
     60 C         0.632222   5.209265   0.599329 C.2        1 UNL1     -0.0208
     61 C         1.544706   5.645044   1.468935 C.2        1 UNL1     0.0882
     62 H         4.685511   2.741347   0.580567 H        1 UNL1     0.0365
     63 H         6.328841   3.623328   -0.251181 H        1 UNL1     0.0576
     64 H         8.339477   1.512063   -1.249518 H        1 UNL1     0.0615
     65 H         8.26369   4.629662   -1.430337 H        1 UNL1     0.0622
     66 H         -1.441796   5.321323   0.521679 H        1 UNL1     0.0645
     67 H         -1.864432   3.62507   -0.680115 H        1 UNL1     0.0362
     68 H         -2.542024   2.485884   1.068913 H        1 UNL1     0.0741
     69 H         -1.194485   0.508071   2.208554 H        1 UNL1     0.0359
     70 H         0.910051   0.717351   2.934256 H        1 UNL1     0.0600
     71 H         1.802915   -0.406363   1.307981 H        1 UNL1     0.0348
     72 H         3.356014   1.469766   1.299529 H        1 UNL1     0.0602
     73 H         0.748729   5.409089   -0.436888 H        1 UNL1     0.0628
     74 H         1.528612   5.432003   2.538324 H        1 UNL1     0.1022
     75 H         10.948144   2.287786   -3.435682 H        1 UNL1     0.0279
     76 H         10.785828   3.478107   -4.664539 H        1 UNL1     0.0279
     77 H         11.905104   3.699956   -3.259796 H        1 UNL1     0.0279
     78 H         9.050444   4.837181   -5.017913 H        1 UNL1     0.1553
     79 H         7.776075   3.361222   -4.666132 H        1 UNL1     0.1484
     80 H         4.028349   2.748452   -4.80237 H        1 UNL1     0.0317
     81 H         4.758543   4.27911   -5.264783 H        1 UNL1     0.0317
     82 H         6.672977   3.097133   -6.374548 H        1 UNL1     0.0428
     83 H         5.117907   2.618211   -7.018049 H        1 UNL1     0.0428
     84 H         6.906256   -0.019785   -4.199198 H        1 UNL1     0.0428
     85 H         7.811905   1.394528   -4.609861 H        1 UNL1     0.0428
     86 H         6.521052   1.458516   -2.475744 H        1 UNL1     0.0317
     87 H         5.025147   1.228942   -3.257994 H        1 UNL1     0.0317
     88 H         7.258068   0.913758   -7.382965 H        1 UNL1     0.0429
     89 H         6.899314   -0.576686   -6.507691 H        1 UNL1     0.0429
     90 H         4.355419   0.233642   -7.307914 H        1 UNL1     0.0308
     91 H         6.293275   1.066032   -9.545467 H        1 UNL1     0.0233
     92 H         4.525484   0.912458   -9.709243 H        1 UNL1     0.0233
     93 H         5.21178   2.151146   -8.680043 H        1 UNL1     0.0233
     94 H         4.646064   -1.451583   -9.161098 H        1 UNL1     0.0233
     95 H         6.344789   -1.572523   -8.677327 H        1 UNL1     0.0233
     96 H         5.060485   -2.016782   -7.529639 H        1 UNL1     0.0233
     97 H         4.109869   10.530106   -0.078725 H        1 UNL1     0.0280
     98 H         5.717961   11.151177   -0.334651 H        1 UNL1     0.0280
     99 H         4.541641   11.15231   -1.682241 H        1 UNL1     0.0280
     100 H         6.657708   10.743558   -2.994013 H        1 UNL1     0.2922
     101 H         4.701461   0.89004   2.432602 H        1 UNL1     0.0236
     102 H         6.011792   2.132378   2.508034 H        1 UNL1     0.0236
     103 H         6.321084   0.526451   1.924222 H        1 UNL1     0.0236
     104 H         4.335083   -0.552943   1.270098 H        1 UNL1     0.2098
     105 H         0.708663   1.282569   -0.929302 H        1 UNL1     0.0234
     106 H         1.290946   -0.404148   -1.013126 H        1 UNL1     0.0234
     107 H         0.0   -0.0   0.0 H        1 UNL1     0.0234
     108 H         1.19754   3.255485   1.754482 H        1 UNL1     0.2098
     109 H         1.071831   3.049992   -0.844838 H        1 UNL1     0.0234
     110 H         -0.184413   2.335299   -1.904965 H        1 UNL1     0.0234
     111 H         0.064661   4.045825   -1.874828 H        1 UNL1     0.0234
     112 H         -3.593279   -1.527789   1.449586 H        1 UNL1     0.0342
     113 H         -3.2216   0.099667   2.121509 H        1 UNL1     0.0342
     114 H         -4.419939   -0.084258   0.837716 H        1 UNL1     0.0342
     115 H         -2.656533   1.933551   3.316835 H        1 UNL1     0.0234
     116 H         -1.149603   1.904105   4.238291 H        1 UNL1     0.0234
     117 H         -1.629202   3.286629   3.23218 H        1 UNL1     0.0234
     118 H         0.922899   7.684847   -0.756206 H        1 UNL1     0.0309
     119 H         2.192016   7.792061   -2.015535 H        1 UNL1     0.0309
     120 H         1.438505   6.269181   -1.596949 H        1 UNL1     0.0309
     121 H         -0.314024   6.265272   2.827437 H        1 UNL1     0.0524
     122 H         -2.054476   6.046967   2.603769 H        1 UNL1     0.0524
     123 H         -1.249525   5.319271   4.016658 H        1 UNL1     0.0524
@<TRIPOS>BOND
     1     1     2    1
     2     1    42    1
     3     2     3    2
     4     3     4    1
     5     4     5    2
     6     5     7    1
     7     6    75    1
     8     6    76    1
     9     6    77    1
    10     7     9   am
    11     9    10    1
    12    10    11    2
    13    10    43    1
    14    11    14    1
    15    11    15    1
    16    12    13   ar
    17    12    27   ar
    18    12    43    1
    19    13    14    1
    20    13    30   ar
    21    14    17    2
    22    15    16    1
    23    16    17    1
    24    16    18    1
    25    16    22    1
    26    18    19    1
    27    19    20    1
    28    20    21    1
    29    21    22    1
    30    23    24    1
    31    23    88    1
    32    23    89    1
    33    24    25    1
    34    24    26    1
    35    24    90    1
    36    25    91    1
    37    25    92    1
    38    25    93    1
    39    26    94    1
    40    26    95    1
    41    26    96    1
    42    27    28   ar
    43    28    29   ar
    44    29    30   ar
    45    29    31    1
    46    30    33    1
    47    31    32    1
    48    32    33    1
    49    32    35    1
    50    34    97    1
    51    34    98    1
    52    34    99    1
    53    35    61    1
    54    36    37    1
    55    36    60    1
    56    37    38    1
    57    38    39    1
    58    39    40    1
    59    40    41    1
    60    41    42    1
    61    45   100    1
    62    47   101    1
    63    47   102    1
    64    47   103    1
    65    48   104    1
    66    49   105    1
    67    49   106    1
    68    49   107    1
    69    50   108    1
    70    51    59    1
    71    52   109    1
    72    52   110    1
    73    52   111    1
    74    53    54    1
    75    54    55    2
    76    54    56    1
    77    56   112    1
    78    56   113    1
    79    56   114    1
    80    57   115    1
    81    57   116    1
    82    57   117    1
    83    58   118    1
    84    58   119    1
    85    58   120    1
    86    59   121    1
    87    59   122    1
    88    59   123    1
    89    60    61    2
    90     1    47    1
    91     1    62    1
    92     2    63    1
    93     3    64    1
    94     4    65    1
    95     5     6    1
    96     7     8    2
    97     9    78    1
    98    15    79    1
    99    18    80    1
   100    18    81    1
   101    19    82    1
   102    19    83    1
   103    20    23    1
   104    21    84    1
   105    21    85    1
   106    22    86    1
   107    22    87    1
   108    27    45    1
   109    28    34    1
   110    32    58    1
   111    33    46    2
   112    36    51    1
   113    36    66    1
   114    37    52    1
   115    37    67    1
   116    38    53    1
   117    38    68    1
   118    42    48    1
   119    42    72    1
   120    43    44    2
   121    60    73    1
   122    61    74    1
   123    39    69    1
   124    39    57    1
   125    40    70    1
   126    40    50    1
   127    41    71    1
   128    41    49    1
