@<TRIPOS>MOLECULE
*****
 123 128 0 0 0
SMALL
GASTEIGER

@<TRIPOS>ATOM
     1 C         5.171384   1.740054   0.477773 C.3        1 UNL1     0.0009
     2 C         6.607565   2.542747   -0.376689 C.2        1 UNL1     -0.0787
     3 C         7.887746   2.441607   -1.045235 C.2        1 UNL1     -0.0649
     4 C         8.765671   3.674408   -1.804056 C.2        1 UNL1     -0.0542
     5 C         9.784075   3.964294   -2.745276 C.2        1 UNL1     0.0115
     6 C         10.909181   3.335972   -3.612843 C.3        1 UNL1     -0.0348
     7 C         9.880676   5.446771   -3.353485 C.2        1 UNL1     0.2441
     8 O         10.706882   6.267323   -2.978514 O.2        1 UNL1     -0.2702
     9 N         9.128159   5.653907   -4.522658 N.am        1 UNL1     -0.2772
     10 C         7.846854   6.043191   -4.206371 C.2        1 UNL1     0.1049
     11 C         7.000005   5.073581   -3.911537 C.2        1 UNL1     0.0801
     12 C         6.554547   7.653567   -2.794293 C.ar        1 UNL1     0.0753
     13 C         5.794501   6.527456   -2.343944 C.ar        1 UNL1     0.0305
     14 C         5.907633   5.220904   -2.988284 C.2        1 UNL1     0.0924
     15 N         7.119892   3.744228   -4.069571 N.pl3        1 UNL1     -0.3170
     16 C         5.849686   3.147641   -3.751903 C.3        1 UNL1     0.1275
     17 N         5.217225   4.104989   -2.771494 N.2        1 UNL1     -0.2557
     18 C         4.994066   3.20697   -5.013686 C.3        1 UNL1     0.0016
     19 C         5.745152   2.520404   -6.143326 C.3        1 UNL1     0.0026
     20 N         6.013715   1.142208   -5.7567 N.3        1 UNL1     -0.3018
     21 C         6.779607   0.981691   -4.518955 C.3        1 UNL1     0.0026
     22 C         6.004651   1.674721   -3.396882 C.3        1 UNL1     0.0016
     23 C         6.454229   0.320769   -6.866577 C.3        1 UNL1     0.0012
     24 C         5.296106   0.072374   -7.845764 C.3        1 UNL1     -0.0339
     25 C         5.370652   1.01744   -9.05628 C.3        1 UNL1     -0.0615
     26 C         5.279839   -1.384645   -8.274262 C.3        1 UNL1     -0.0615
     27 C         6.353378   8.922163   -2.255486 C.ar        1 UNL1     0.1347
     28 C         5.396993   9.194384   -1.293575 C.ar        1 UNL1     0.0342
     29 C         4.694461   8.06165   -0.830405 C.ar        1 UNL1     0.1435
     30 C         4.910464   6.778728   -1.335055 C.ar        1 UNL1     0.0774
     31 O         3.655623   8.177931   0.025342 O.3        1 UNL1     -0.4436
     32 C         2.931426   6.94626   -0.113931 C.3        1 UNL1     0.3143
     33 C         3.941733   5.950813   -0.64739 C.2        1 UNL1     0.2504
     34 C         4.953598   10.561725   -0.853257 C.3        1 UNL1     -0.0327
     35 O         2.573018   6.511526   1.203567 O.2        1 UNL1     -0.4528
     36 C         -0.674367   4.584737   0.816187 C.3        1 UNL1     0.0854
     37 C         -0.98397   3.323798   -0.079191 C.3        1 UNL1     0.0236
     38 C         -1.584971   2.064622   0.71139 C.3        1 UNL1     0.1131
     39 C         -0.857188   1.533703   2.01167 C.3        1 UNL1     0.0200
     40 C         0.803832   1.385233   2.049189 C.3        1 UNL1     0.0661
     41 C         1.759153   0.613513   0.878967 C.3        1 UNL1     0.0091
     42 C         3.466089   0.972451   0.310695 C.3        1 UNL1     0.0661
     43 C         7.501651   7.443038   -3.917205 C.2        1 UNL1     0.2131
     44 O         7.90149   8.339674   -4.637557 O.2        1 UNL1     -0.2851
     45 O         7.166439   9.955355   -2.716881 O.3        1 UNL1     -0.5056
     46 O         3.955874   4.747385   -0.515429 O.2        1 UNL1     -0.2836
     47 C         5.57027   1.311324   1.915501 C.3        1 UNL1     -0.0566
     48 O         3.91232   -0.43937   0.392888 O.3        1 UNL1     -0.3909
     49 C         0.921716   0.381159   -0.358856 C.3        1 UNL1     -0.0577
     50 O         1.4071   2.602418   2.439383 O.3        1 UNL1     -0.3910
     51 O         -0.795608   4.396694   2.208082 O.3        1 UNL1     -0.3753
     52 C         0.057555   3.160292   -1.233937 C.3        1 UNL1     -0.0564
     53 O         -2.191487   1.025805   -0.186009 O.3        1 UNL1     -0.4608
     54 C         -2.427451   -0.28018   0.155535 C.2        1 UNL1     0.3042
     55 O         -1.860119   -1.280669   -0.281496 O.2        1 UNL1     -0.2512
     56 C         -3.466813   -0.442992   1.227884 C.3        1 UNL1     0.0332
     57 C         -1.57413   2.205264   3.27388 C.3        1 UNL1     -0.0567
     58 C         1.854189   7.192171   -1.195882 C.3        1 UNL1     0.0210
     59 C         -1.105003   5.577008   2.947676 C.3        1 UNL1     0.0372
     60 C         0.655218   5.211208   0.581887 C.2        1 UNL1     -0.0208
     61 C         1.57092   5.645691   1.448755 C.2        1 UNL1     0.0882
     62 H         4.697424   2.725165   0.565125 H        1 UNL1     0.0365
     63 H         6.343443   3.597128   -0.271851 H        1 UNL1     0.0576
     64 H         8.343165   1.473716   -1.266342 H        1 UNL1     0.0615
     65 H         8.281021   4.591027   -1.457058 H        1 UNL1     0.0622
     66 H         -1.418392   5.332279   0.506909 H        1 UNL1     0.0645
     67 H         -1.850364   3.634088   -0.688814 H        1 UNL1     0.0362
     68 H         -2.53045   2.50355   1.064851 H        1 UNL1     0.0741
     69 H         -1.190068   0.5234   2.208865 H        1 UNL1     0.0359
     70 H         0.916449   0.725602   2.930815 H        1 UNL1     0.0600
     71 H         1.80189   -0.407293   1.306853 H        1 UNL1     0.0348
     72 H         3.36333   1.461844   1.290108 H        1 UNL1     0.0602
     73 H         0.771086   5.407189   -0.455135 H        1 UNL1     0.0628
     74 H         1.555454   5.436151   2.518845 H        1 UNL1     0.1022
     75 H         10.93337   2.227392   -3.480556 H        1 UNL1     0.0279
     76 H         10.806702   3.441106   -4.690579 H        1 UNL1     0.0279
     77 H         11.916338   3.617035   -3.271757 H        1 UNL1     0.0279
     78 H         9.063398   4.783535   -5.046428 H        1 UNL1     0.1553
     79 H         7.782976   3.314416   -4.688048 H        1 UNL1     0.1484
     80 H         4.032357   2.717957   -4.816841 H        1 UNL1     0.0317
     81 H         4.76869   4.24385   -5.285233 H        1 UNL1     0.0317
     82 H         6.676191   3.049784   -6.393993 H        1 UNL1     0.0428
     83 H         5.118052   2.575754   -7.033681 H        1 UNL1     0.0428
     84 H         6.898772   -0.061158   -4.208991 H        1 UNL1     0.0428
     85 H         7.810115   1.347772   -4.625516 H        1 UNL1     0.0428
     86 H         6.522711   1.424363   -2.489731 H        1 UNL1     0.0317
     87 H         5.024644   1.198967   -3.269053 H        1 UNL1     0.0317
     88 H         7.250046   0.860599   -7.39625 H        1 UNL1     0.0429
     89 H         6.885938   -0.625417   -6.515672 H        1 UNL1     0.0429
     90 H         4.344908   0.242864   -7.327721 H        1 UNL1     0.0308
     91 H         6.324284   0.914934   -9.582759 H        1 UNL1     0.0233
     92 H         4.553095   0.817977   -9.753004 H        1 UNL1     0.0233
     93 H         5.277451   2.071849   -8.769279 H        1 UNL1     0.0233
     94 H         4.585581   -1.524877   -9.109831 H        1 UNL1     0.0233
     95 H         6.276048   -1.686695   -8.609368 H        1 UNL1     0.0233
     96 H         4.970018   -2.038353   -7.454113 H        1 UNL1     0.0233
     97 H         4.155566   10.514264   -0.118328 H        1 UNL1     0.0280
     98 H         5.766033   11.127324   -0.378596 H        1 UNL1     0.0280
     99 H         4.587742   11.129393   -1.724462 H        1 UNL1     0.0280
     100 H         6.700026   10.706993   -3.038006 H        1 UNL1     0.2922
     101 H         4.704735   0.891175   2.42734 H        1 UNL1     0.0236
     102 H         6.034898   2.113052   2.488507 H        1 UNL1     0.0236
     103 H         6.315887   0.49877   1.913499 H        1 UNL1     0.0236
     104 H         4.328258   -0.566773   1.26795 H        1 UNL1     0.2098
     105 H         0.709356   1.279779   -0.932614 H        1 UNL1     0.0234
     106 H         1.288187   -0.408197   -1.015014 H        1 UNL1     0.0234
     107 H         0.0   -0.0   0.0 H        1 UNL1     0.0234
     108 H         1.223129   3.25561   1.737055 H        1 UNL1     0.2098
     109 H         1.084527   3.057765   -0.856409 H        1 UNL1     0.0234
     110 H         -0.171258   2.325293   -1.904879 H        1 UNL1     0.0234
     111 H         0.070007   4.037173   -1.8949 H        1 UNL1     0.0234
     112 H         -3.591497   -1.503387   1.467388 H        1 UNL1     0.0342
     113 H         -3.228344   0.133706   2.120294 H        1 UNL1     0.0342
     114 H         -4.424034   -0.071158   0.837201 H        1 UNL1     0.0342
     115 H         -2.644104   1.958939   3.3147 H        1 UNL1     0.0234
     116 H         -1.135963   1.925715   4.234042 H        1 UNL1     0.0234
     117 H         -1.610873   3.307137   3.2242 H        1 UNL1     0.0234
     118 H         0.954311   7.679704   -0.78171 H        1 UNL1     0.0309
     119 H         2.222236   7.779921   -2.042815 H        1 UNL1     0.0309
     120 H         1.464083   6.260503   -1.62005 H        1 UNL1     0.0309
     121 H         -0.265986   6.263707   2.83881 H        1 UNL1     0.0524
     122 H         -2.003874   6.087642   2.563853 H        1 UNL1     0.0524
     123 H         -1.25755   5.334738   3.995592 H        1 UNL1     0.0524
@<TRIPOS>BOND
     1     1     2    1
     2     1    42    1
     3     2     3    2
     4     3     4    1
     5     4     5    2
     6     5     7    1
     7     6    75    1
     8     6    76    1
     9     6    77    1
    10     7     9   am
    11     9    10    1
    12    10    11    2
    13    10    43    1
    14    11    14    1
    15    11    15    1
    16    12    13   ar
    17    12    27   ar
    18    12    43    1
    19    13    14    1
    20    13    30   ar
    21    14    17    2
    22    15    16    1
    23    16    17    1
    24    16    18    1
    25    16    22    1
    26    18    19    1
    27    19    20    1
    28    20    21    1
    29    21    22    1
    30    23    24    1
    31    23    88    1
    32    23    89    1
    33    24    25    1
    34    24    26    1
    35    24    90    1
    36    25    91    1
    37    25    92    1
    38    25    93    1
    39    26    94    1
    40    26    95    1
    41    26    96    1
    42    27    28   ar
    43    28    29   ar
    44    29    30   ar
    45    29    31    1
    46    30    33    1
    47    31    32    1
    48    32    33    1
    49    32    35    1
    50    34    97    1
    51    34    98    1
    52    34    99    1
    53    35    61    1
    54    36    37    1
    55    36    60    1
    56    37    38    1
    57    38    39    1
    58    39    40    1
    59    40    41    1
    60    41    42    1
    61    45   100    1
    62    47   101    1
    63    47   102    1
    64    47   103    1
    65    48   104    1
    66    49   105    1
    67    49   106    1
    68    49   107    1
    69    50   108    1
    70    51    59    1
    71    52   109    1
    72    52   110    1
    73    52   111    1
    74    53    54    1
    75    54    55    2
    76    54    56    1
    77    56   112    1
    78    56   113    1
    79    56   114    1
    80    57   115    1
    81    57   116    1
    82    57   117    1
    83    58   118    1
    84    58   119    1
    85    58   120    1
    86    59   121    1
    87    59   122    1
    88    59   123    1
    89    60    61    2
    90     1    47    1
    91     1    62    1
    92     2    63    1
    93     3    64    1
    94     4    65    1
    95     5     6    1
    96     7     8    2
    97     9    78    1
    98    15    79    1
    99    18    80    1
   100    18    81    1
   101    19    82    1
   102    19    83    1
   103    20    23    1
   104    21    84    1
   105    21    85    1
   106    22    86    1
   107    22    87    1
   108    27    45    1
   109    28    34    1
   110    32    58    1
   111    33    46    2
   112    36    51    1
   113    36    66    1
   114    37    52    1
   115    37    67    1
   116    38    53    1
   117    38    68    1
   118    42    48    1
   119    42    72    1
   120    43    44    2
   121    60    73    1
   122    61    74    1
   123    39    69    1
   124    39    57    1
   125    40    70    1
   126    40    50    1
   127    41    71    1
   128    41    49    1
