@<TRIPOS>MOLECULE
*****
 123 128 0 0 0
SMALL
GASTEIGER

@<TRIPOS>ATOM
     1 C         -2.320737   3.098614   -3.740306 C.3        1 UNL1     0.0009
     2 C         -2.654223   3.215282   -5.560254 C.2        1 UNL1     -0.0787
     3 C         -2.425206   3.850298   -6.841017 C.2        1 UNL1     -0.0649
     4 C         -3.007345   3.373681   -8.357694 C.2        1 UNL1     -0.0542
     5 C         -2.822163   3.480005   -9.758222 C.2        1 UNL1     0.0115
     6 C         -2.048481   4.24188   -10.869206 C.3        1 UNL1     -0.0348
     7 C         -3.509873   2.392041   -10.717585 C.2        1 UNL1     0.2441
     8 O         -4.530192   2.616419   -11.354084 O.2        1 UNL1     -0.2702
     9 N         -2.722557   1.257631   -10.98102 N.am        1 UNL1     -0.2772
     10 C         -2.926786   0.29702   -10.017256 C.2        1 UNL1     0.1049
     11 C         -2.235505   0.436636   -8.900626 C.2        1 UNL1     0.0801
     12 C         -4.728363   -0.933465   -8.793508 C.ar        1 UNL1     0.0753
     13 C         -4.046082   -0.574386   -7.587621 C.ar        1 UNL1     0.0305
     14 C         -2.707027   0.009935   -7.611065 C.2        1 UNL1     0.0924
     15 N         -1.201623   1.248519   -8.620517 N.pl3        1 UNL1     -0.3170
     16 C         -0.699907   0.888661   -7.320887 C.3        1 UNL1     0.1275
     17 N         -1.893794   0.30925   -6.60211 N.2        1 UNL1     -0.2557
     18 C         0.277564   -0.26617   -7.517404 C.3        1 UNL1     0.0016
     19 C         1.348555   0.166095   -8.506198 C.3        1 UNL1     0.0026
     20 N         2.026133   1.341865   -7.977539 N.3        1 UNL1     -0.3018
     21 C         1.157177   2.486768   -7.697394 C.3        1 UNL1     0.0026
     22 C         0.091807   2.031289   -6.698684 C.3        1 UNL1     0.0016
     23 C         3.25   1.654608   -8.688162 C.3        1 UNL1     0.0012
     24 C         4.115092   2.62571   -7.869422 C.3        1 UNL1     -0.0339
     25 C         4.777139   3.683349   -8.767838 C.3        1 UNL1     -0.0615
     26 C         3.282858   3.266112   -6.77213 C.3        1 UNL1     -0.0615
     27 C         -5.951134   -1.599666   -8.759956 C.ar        1 UNL1     0.1347
     28 C         -6.568107   -1.993254   -7.585868 C.ar        1 UNL1     0.0342
     29 C         -5.902249   -1.585949   -6.410325 C.ar        1 UNL1     0.1435
     30 C         -4.69494   -0.886448   -6.428261 C.ar        1 UNL1     0.0774
     31 O         -6.318871   -1.986998   -5.189427 O.3        1 UNL1     -0.4436
     32 C         -5.180507   -1.794093   -4.336322 C.3        1 UNL1     0.3143
     33 C         -4.337145   -0.745005   -5.032287 C.2        1 UNL1     0.2504
     34 C         -7.743404   -2.924299   -7.476637 C.3        1 UNL1     -0.0327
     35 O         -5.655438   -1.20701   -3.118527 O.2        1 UNL1     -0.4528
     36 C         -3.294331   -2.401876   -0.397212 C.3        1 UNL1     0.0854
     37 C         -1.729154   -2.237653   -0.293405 C.3        1 UNL1     0.0236
     38 C         -1.210328   -1.545056   1.056733 C.3        1 UNL1     0.1131
     39 C         -1.8455   -0.17622   1.531195 C.3        1 UNL1     0.0200
     40 C         -2.131575   1.047561   0.434399 C.3        1 UNL1     0.0661
     41 C         -1.01788   1.651063   -0.693908 C.3        1 UNL1     0.0091
     42 C         -1.280478   2.339985   -2.373739 C.3        1 UNL1     0.0661
     43 C         -4.047751   -0.652509   -10.081953 C.2        1 UNL1     0.2131
     44 O         -4.307368   -1.232372   -11.120748 O.2        1 UNL1     -0.2851
     45 O         -6.571043   -1.871943   -9.977748 O.3        1 UNL1     -0.5056
     46 O         -3.561293   0.044788   -4.542252 O.2        1 UNL1     -0.2836
     47 C         -3.046991   4.243725   -2.984491 C.3        1 UNL1     -0.0566
     48 O         -0.417717   3.524568   -2.146752 O.3        1 UNL1     -0.3909
     49 C         0.14965   0.694141   -0.787015 C.3        1 UNL1     -0.0577
     50 O         -3.397862   0.889938   -0.173379 O.3        1 UNL1     -0.3910
     51 O         -4.04829   -1.771391   0.613464 O.3        1 UNL1     -0.3753
     52 C         -1.082352   -1.935093   -1.684467 C.3        1 UNL1     -0.0564
     53 O         0.262183   -1.715151   1.291475 O.3        1 UNL1     -0.4608
     54 C         1.257915   -1.16007   0.530993 C.2        1 UNL1     0.3042
     55 O         2.461478   -1.127968   0.78446 O.2        1 UNL1     -0.2512
     56 C         0.773192   -0.591131   -0.772105 C.3        1 UNL1     0.0332
     57 C         -3.00052   -0.519416   2.583012 C.3        1 UNL1     -0.0567
     58 C         -4.406516   -3.13291   -4.330323 C.3        1 UNL1     0.0210
     59 C         -5.216093   -1.092042   0.154566 C.3        1 UNL1     0.0372
     60 C         -3.885582   -1.984122   -1.697621 C.2        1 UNL1     -0.0208
     61 C         -4.971731   -1.255678   -1.959146 C.2        1 UNL1     0.0882
     62 H         -2.981935   2.224863   -3.694617 H        1 UNL1     0.0365
     63 H         -3.423282   2.448698   -5.675864 H        1 UNL1     0.0576
     64 H         -1.684251   4.643645   -6.962235 H        1 UNL1     0.0615
     65 H         -3.78779   2.645659   -8.120265 H        1 UNL1     0.0622
     66 H         -3.46368   -3.485352   -0.323413 H        1 UNL1     0.0645
     67 H         -1.3591   -3.269923   -0.166759 H        1 UNL1     0.0362
     68 H         -1.549186   -2.293398   1.789319 H        1 UNL1     0.0741
     69 H         -1.174609   0.291896   2.239137 H        1 UNL1     0.0359
     70 H         -2.262224   1.899393   1.128929 H        1 UNL1     0.0600
     71 H         -0.574534   2.477687   -0.104761 H        1 UNL1     0.0348
     72 H         -2.254445   2.398122   -1.866468 H        1 UNL1     0.0602
     73 H         -3.369715   -2.470259   -2.488064 H        1 UNL1     0.0628
     74 H         -5.521862   -0.679555   -1.214381 H        1 UNL1     0.1022
     75 H         -1.168931   3.646105   -11.213412 H        1 UNL1     0.0279
     76 H         -2.585939   4.423654   -11.797197 H        1 UNL1     0.0279
     77 H         -1.560078   5.154677   -10.497769 H        1 UNL1     0.0279
     78 H         -1.737247   1.511846   -10.956194 H        1 UNL1     0.1553
     79 H         -0.632295   1.68718   -9.320785 H        1 UNL1     0.1484
     80 H         0.713021   -0.534989   -6.547414 H        1 UNL1     0.0317
     81 H         -0.239762   -1.158141   -7.886746 H        1 UNL1     0.0317
     82 H         0.926277   0.366829   -9.501838 H        1 UNL1     0.0428
     83 H         2.033763   -0.672618   -8.633088 H        1 UNL1     0.0428
     84 H         1.677055   3.327349   -7.227329 H        1 UNL1     0.0428
     85 H         0.735492   2.914671   -8.617392 H        1 UNL1     0.0428
     86 H         -0.43998   2.921048   -6.416693 H        1 UNL1     0.0317
     87 H         0.567207   1.712475   -5.763029 H        1 UNL1     0.0317
     88 H         3.810706   0.721413   -8.82976 H        1 UNL1     0.0429
     89 H         3.039206   2.057875   -9.687019 H        1 UNL1     0.0429
     90 H         4.902555   2.060522   -7.356901 H        1 UNL1     0.0308
     91 H         4.28584   3.740046   -9.743805 H        1 UNL1     0.0233
     92 H         4.746767   4.66699   -8.293352 H        1 UNL1     0.0233
     93 H         5.835717   3.467468   -8.95663 H        1 UNL1     0.0233
     94 H         2.258984   2.877806   -6.799266 H        1 UNL1     0.0233
     95 H         3.708055   3.027521   -5.79323 H        1 UNL1     0.0233
     96 H         3.243239   4.353226   -6.884305 H        1 UNL1     0.0233
     97 H         -8.02312   -3.342044   -8.439174 H        1 UNL1     0.0280
     98 H         -7.531956   -3.783135   -6.826293 H        1 UNL1     0.0280
     99 H         -8.610874   -2.377671   -7.071929 H        1 UNL1     0.0280
     100 H         -6.308417   -2.682018   -10.378284 H        1 UNL1     0.2922
     101 H         -3.706197   4.776315   -3.669658 H        1 UNL1     0.0236
     102 H         -2.363872   4.917062   -2.467818 H        1 UNL1     0.0236
     103 H         -3.714679   3.860507   -2.194852 H        1 UNL1     0.0236
     104 H         -0.548782   3.812073   -1.222018 H        1 UNL1     0.2098
     105 H         0.199361   0.13558   -1.718331 H        1 UNL1     0.0234
     106 H         1.119683   1.135771   -0.55914 H        1 UNL1     0.0234
     107 H         0.0   0.0   0.0 H        1 UNL1     0.0234
     108 H         -3.507956   -0.059836   -0.372319 H        1 UNL1     0.2098
     109 H         -1.008767   -0.856778   -1.883295 H        1 UNL1     0.0234
     110 H         -0.098358   -2.399122   -1.811656 H        1 UNL1     0.0234
     111 H         -1.680212   -2.348959   -2.507404 H        1 UNL1     0.0234
     112 H         1.565527   -0.655637   -1.524029 H        1 UNL1     0.0342
     113 H         -0.135828   -1.079861   -1.119478 H        1 UNL1     0.0342
     114 H         0.541432   0.471658   -0.617405 H        1 UNL1     0.0342
     115 H         -2.615534   -1.086369   3.441813 H        1 UNL1     0.0234
     116 H         -3.519319   0.357821   2.974615 H        1 UNL1     0.0234
     117 H         -3.760043   -1.217133   2.190257 H        1 UNL1     0.0234
     118 H         -3.815579   -3.274309   -5.252173 H        1 UNL1     0.0309
     119 H         -3.748792   -3.245041   -3.462551 H        1 UNL1     0.0309
     120 H         -5.071935   -4.003103   -4.320917 H        1 UNL1     0.0309
     121 H         -5.808063   -0.825939   1.029847 H        1 UNL1     0.0524
     122 H         -4.974113   -0.157848   -0.379066 H        1 UNL1     0.0524
     123 H         -5.790815   -1.736104   -0.504959 H        1 UNL1     0.0524
@<TRIPOS>BOND
     1     1     2    1
     2     1    42    1
     3     2     3    2
     4     3     4    1
     5     4     5    2
     6     5     7    1
     7     6    75    1
     8     6    76    1
     9     6    77    1
    10     7     9   am
    11     9    10    1
    12    10    11    2
    13    10    43    1
    14    11    14    1
    15    11    15    1
    16    12    13   ar
    17    12    27   ar
    18    12    43    1
    19    13    14    1
    20    13    30   ar
    21    14    17    2
    22    15    16    1
    23    16    17    1
    24    16    18    1
    25    16    22    1
    26    18    19    1
    27    19    20    1
    28    20    21    1
    29    21    22    1
    30    23    24    1
    31    23    88    1
    32    23    89    1
    33    24    25    1
    34    24    26    1
    35    24    90    1
    36    25    91    1
    37    25    92    1
    38    25    93    1
    39    26    94    1
    40    26    95    1
    41    26    96    1
    42    27    28   ar
    43    28    29   ar
    44    29    30   ar
    45    29    31    1
    46    30    33    1
    47    31    32    1
    48    32    33    1
    49    32    35    1
    50    34    97    1
    51    34    98    1
    52    34    99    1
    53    35    61    1
    54    36    37    1
    55    36    60    1
    56    37    38    1
    57    38    39    1
    58    39    40    1
    59    40    41    1
    60    41    42    1
    61    45   100    1
    62    47   101    1
    63    47   102    1
    64    47   103    1
    65    48   104    1
    66    49   105    1
    67    49   106    1
    68    49   107    1
    69    50   108    1
    70    51    59    1
    71    52   109    1
    72    52   110    1
    73    52   111    1
    74    53    54    1
    75    54    55    2
    76    54    56    1
    77    56   112    1
    78    56   113    1
    79    56   114    1
    80    57   115    1
    81    57   116    1
    82    57   117    1
    83    58   118    1
    84    58   119    1
    85    58   120    1
    86    59   121    1
    87    59   122    1
    88    59   123    1
    89    60    61    2
    90     1    47    1
    91     1    62    1
    92     2    63    1
    93     3    64    1
    94     4    65    1
    95     5     6    1
    96     7     8    2
    97     9    78    1
    98    15    79    1
    99    18    80    1
   100    18    81    1
   101    19    82    1
   102    19    83    1
   103    20    23    1
   104    21    84    1
   105    21    85    1
   106    22    86    1
   107    22    87    1
   108    27    45    1
   109    28    34    1
   110    32    58    1
   111    33    46    2
   112    36    51    1
   113    36    66    1
   114    37    52    1
   115    37    67    1
   116    38    53    1
   117    38    68    1
   118    42    48    1
   119    42    72    1
   120    43    44    2
   121    60    73    1
   122    61    74    1
   123    39    69    1
   124    39    57    1
   125    40    70    1
   126    40    50    1
   127    41    71    1
   128    41    49    1
