@<TRIPOS>MOLECULE
*****
 123 128 0 0 0
SMALL
GASTEIGER

@<TRIPOS>ATOM
     1 C         5.168286   1.746637   0.487187 C.3        1 UNL1     0.0009
     2 C         6.604526   2.552438   -0.364245 C.2        1 UNL1     -0.0787
     3 C         7.88577   2.453949   -1.031148 C.2        1 UNL1     -0.0649
     4 C         8.763023   3.688955   -1.787155 C.2        1 UNL1     -0.0542
     5 C         9.782323   3.98148   -2.726588 C.2        1 UNL1     0.0115
     6 C         10.909502   3.355853   -3.593409 C.3        1 UNL1     -0.0348
     7 C         9.877696   5.464878   -3.332742 C.2        1 UNL1     0.2441
     8 O         10.702237   6.286094   -2.955564 O.2        1 UNL1     -0.2702
     9 N         9.126508   5.672482   -4.502686 N.am        1 UNL1     -0.2772
     10 C         7.844225   6.059569   -4.18767 C.2        1 UNL1     0.1049
     11 C         6.998322   5.0884   -3.895265 C.2        1 UNL1     0.0801
     12 C         6.547721   7.66631   -2.775298 C.ar        1 UNL1     0.0753
     13 C         5.788625   6.538559   -2.327461 C.ar        1 UNL1     0.0305
     14 C         5.90447   5.233002   -2.973336 C.2        1 UNL1     0.0924
     15 N         7.120283   3.759421   -4.054854 N.pl3        1 UNL1     -0.3170
     16 C         5.850472   3.160653   -3.739718 C.3        1 UNL1     0.1275
     17 N         5.215321   4.115846   -2.758947 N.2        1 UNL1     -0.2557
     18 C         4.996516   3.220427   -5.002608 C.3        1 UNL1     0.0016
     19 C         5.750121   2.536373   -6.132094 C.3        1 UNL1     0.0026
     20 N         6.020071   1.158053   -5.746882 N.3        1 UNL1     -0.3018
     21 C         6.784474   0.996997   -4.508287 C.3        1 UNL1     0.0026
     22 C         6.007001   1.687491   -3.386392 C.3        1 UNL1     0.0016
     23 C         6.463266   0.338668   -6.857212 C.3        1 UNL1     0.0012
     24 C         5.306845   0.089931   -7.838322 C.3        1 UNL1     -0.0339
     25 C         5.341889   1.08241   -9.012125 C.3        1 UNL1     -0.0615
     26 C         5.334953   -1.349436   -8.322278 C.3        1 UNL1     -0.0615
     27 C         6.344037   8.933925   -2.235128 C.ar        1 UNL1     0.1347
     28 C         5.385944   9.203566   -1.27419 C.ar        1 UNL1     0.0342
     29 C         4.684353   8.069254   -0.813461 C.ar        1 UNL1     0.1435
     30 C         4.902844   6.787289   -1.319473 C.ar        1 UNL1     0.0774
     31 O         3.644172   8.182977   0.040996 O.3        1 UNL1     -0.4436
     32 C         2.921887   6.950479   -0.100875 C.3        1 UNL1     0.3143
     33 C         3.934319   5.957134   -0.634223 C.2        1 UNL1     0.2504
     34 C         4.940034   10.569715   -0.832716 C.3        1 UNL1     -0.0327
     35 O         2.562264   6.513538   1.215562 O.2        1 UNL1     -0.4528
     36 C         -0.681891   4.58273   0.82119 C.3        1 UNL1     0.0854
     37 C         -0.988496   3.322523   -0.076248 C.3        1 UNL1     0.0236
     38 C         -1.588833   2.061487   0.711868 C.3        1 UNL1     0.1131
     39 C         -0.862108   1.529896   2.012465 C.3        1 UNL1     0.0200
     40 C         0.799064   1.383692   2.052093 C.3        1 UNL1     0.0661
     41 C         1.757078   0.614823   0.882196 C.3        1 UNL1     0.0091
     42 C         3.464296   0.976876   0.316753 C.3        1 UNL1     0.0661
     43 C         7.496669   7.458558   -3.897169 C.2        1 UNL1     0.2131
     44 O         7.896254   8.356684   -4.615805 O.2        1 UNL1     -0.2851
     45 O         7.156294   9.968846   -2.694057 O.3        1 UNL1     -0.5056
     46 O         3.949956   4.753557   -0.503801 O.2        1 UNL1     -0.2836
     47 C         5.565781   1.316598   1.924909 C.3        1 UNL1     -0.0566
     48 O         3.912383   -0.434428   0.397736 O.3        1 UNL1     -0.3909
     49 C         0.921678   0.382908   -0.357085 C.3        1 UNL1     -0.0577
     50 O         1.400093   2.60121   2.444697 O.3        1 UNL1     -0.3910
     51 O         -0.804794   4.392713   2.212671 O.3        1 UNL1     -0.3753
     52 C         0.054852   3.161968   -1.229762 C.3        1 UNL1     -0.0564
     53 O         -2.192657   1.022991   -0.187715 O.3        1 UNL1     -0.4608
     54 C         -2.42727   -0.283764   0.151811 C.2        1 UNL1     0.3042
     55 O         -1.85896   -1.282994   -0.286825 O.2        1 UNL1     -0.2512
     56 C         -3.466382   -0.4493   1.223985 C.3        1 UNL1     0.0332
     57 C         -1.581731   2.19882   3.274551 C.3        1 UNL1     -0.0567
     58 C         1.845805   7.196293   -1.183997 C.3        1 UNL1     0.0210
     59 C         -1.116858   5.571635   2.953364 C.3        1 UNL1     0.0372
     60 C         0.647142   5.211357   0.589543 C.2        1 UNL1     -0.0208
     61 C         1.561037   5.645991   1.45824 C.2        1 UNL1     0.0882
     62 H         4.692832   2.730972   0.575159 H        1 UNL1     0.0365
     63 H         6.338788   3.606312   -0.258407 H        1 UNL1     0.0576
     64 H         8.342844   1.486981   -1.252878 H        1 UNL1     0.0615
     65 H         8.276615   4.604447   -1.439642 H        1 UNL1     0.0622
     66 H         -1.426529   5.329636   0.51185 H        1 UNL1     0.0645
     67 H         -1.854478   3.632397   -0.686668 H        1 UNL1     0.0362
     68 H         -2.535411   2.498638   1.064588 H        1 UNL1     0.0741
     69 H         -1.193851   0.518875   2.207891 H        1 UNL1     0.0359
     70 H         0.911382   0.723076   2.933019 H        1 UNL1     0.0600
     71 H         1.800647   -0.406476   1.308818 H        1 UNL1     0.0348
     72 H         3.359499   1.464854   1.296657 H        1 UNL1     0.0602
     73 H         0.76417   5.408843   -0.447063 H        1 UNL1     0.0628
     74 H         1.544383   5.435042   2.528035 H        1 UNL1     0.1022
     75 H         10.951608   2.250103   -3.443141 H        1 UNL1     0.0279
     76 H         10.796396   3.441576   -4.6718 H        1 UNL1     0.0279
     77 H         11.91511   3.657623   -3.265706 H        1 UNL1     0.0279
     78 H         9.063686   4.802701   -5.027673 H        1 UNL1     0.1553
     79 H         7.784821   3.331336   -4.672969 H        1 UNL1     0.1484
     80 H         4.035219   2.729819   -4.807728 H        1 UNL1     0.0317
     81 H         4.770069   4.257343   -5.273123 H        1 UNL1     0.0317
     82 H         6.680766   3.067375   -6.380786 H        1 UNL1     0.0428
     83 H         5.124176   2.592004   -7.023245 H        1 UNL1     0.0428
     84 H         6.904665   -0.046086   -4.19951 H        1 UNL1     0.0428
     85 H         7.814617   1.364652   -4.612947 H        1 UNL1     0.0428
     86 H         6.524155   1.436678   -2.478849 H        1 UNL1     0.0317
     87 H         5.027483   1.210206   -3.260536 H        1 UNL1     0.0317
     88 H         7.25906   0.880293   -7.385082 H        1 UNL1     0.0429
     89 H         6.895808   -0.607369   -6.506935 H        1 UNL1     0.0429
     90 H         4.354343   0.209239   -7.308493 H        1 UNL1     0.0308
     91 H         6.294549   1.031401   -9.547791 H        1 UNL1     0.0233
     92 H         4.52628   0.882944   -9.711128 H        1 UNL1     0.0233
     93 H         5.216467   2.121481   -8.684351 H        1 UNL1     0.0233
     94 H         4.639648   -1.480405   -9.15848 H        1 UNL1     0.0233
     95 H         6.338037   -1.605638   -8.67462 H        1 UNL1     0.0233
     96 H         5.052476   -2.043759   -7.52598 H        1 UNL1     0.0233
     97 H         4.141052   10.520189   -0.098955 H        1 UNL1     0.0280
     98 H         5.751022   11.135829   -0.356198 H        1 UNL1     0.0280
     99 H         4.574591   11.138002   -1.703691 H        1 UNL1     0.0280
     100 H         6.689277   10.72025   -3.014854 H        1 UNL1     0.2922
     101 H         4.70326   0.883163   2.430723 H        1 UNL1     0.0236
     102 H         6.017407   2.121613   2.503675 H        1 UNL1     0.0236
     103 H         6.321714   0.513632   1.922905 H        1 UNL1     0.0236
     104 H         4.33235   -0.560905   1.271006 H        1 UNL1     0.2098
     105 H         0.708859   1.281975   -0.929972 H        1 UNL1     0.0234
     106 H         1.290157   -0.405085   -1.013757 H        1 UNL1     0.0234
     107 H         0.0   -0.0   0.0 H        1 UNL1     0.0234
     108 H         1.206559   3.258059   1.748377 H        1 UNL1     0.2098
     109 H         1.07999   3.047991   -0.850535 H        1 UNL1     0.0234
     110 H         -0.178536   2.335138   -1.909193 H        1 UNL1     0.0234
     111 H         0.075792   4.044945   -1.882341 H        1 UNL1     0.0234
     112 H         -3.589973   -1.510193   1.461845 H        1 UNL1     0.0342
     113 H         -3.228427   0.126246   2.117275 H        1 UNL1     0.0342
     114 H         -4.42401   -0.077828   0.833956 H        1 UNL1     0.0342
     115 H         -2.651416   1.950952   3.31357 H        1 UNL1     0.0234
     116 H         -1.144503   1.918637   4.234956 H        1 UNL1     0.0234
     117 H         -1.619943   3.300704   3.226247 H        1 UNL1     0.0234
     118 H         0.944676   7.682033   -0.77044 H        1 UNL1     0.0309
     119 H         2.214203   7.785653   -2.029657 H        1 UNL1     0.0309
     120 H         1.457586   6.264633   -1.609911 H        1 UNL1     0.0309
     121 H         -0.29566   6.274516   2.815709 H        1 UNL1     0.0524
     122 H         -2.036794   6.06113   2.592602 H        1 UNL1     0.0524
     123 H         -1.233957   5.333664   4.006811 H        1 UNL1     0.0524
@<TRIPOS>BOND
     1     1     2    1
     2     1    42    1
     3     2     3    2
     4     3     4    1
     5     4     5    2
     6     5     7    1
     7     6    75    1
     8     6    76    1
     9     6    77    1
    10     7     9   am
    11     9    10    1
    12    10    11    2
    13    10    43    1
    14    11    14    1
    15    11    15    1
    16    12    13   ar
    17    12    27   ar
    18    12    43    1
    19    13    14    1
    20    13    30   ar
    21    14    17    2
    22    15    16    1
    23    16    17    1
    24    16    18    1
    25    16    22    1
    26    18    19    1
    27    19    20    1
    28    20    21    1
    29    21    22    1
    30    23    24    1
    31    23    88    1
    32    23    89    1
    33    24    25    1
    34    24    26    1
    35    24    90    1
    36    25    91    1
    37    25    92    1
    38    25    93    1
    39    26    94    1
    40    26    95    1
    41    26    96    1
    42    27    28   ar
    43    28    29   ar
    44    29    30   ar
    45    29    31    1
    46    30    33    1
    47    31    32    1
    48    32    33    1
    49    32    35    1
    50    34    97    1
    51    34    98    1
    52    34    99    1
    53    35    61    1
    54    36    37    1
    55    36    60    1
    56    37    38    1
    57    38    39    1
    58    39    40    1
    59    40    41    1
    60    41    42    1
    61    45   100    1
    62    47   101    1
    63    47   102    1
    64    47   103    1
    65    48   104    1
    66    49   105    1
    67    49   106    1
    68    49   107    1
    69    50   108    1
    70    51    59    1
    71    52   109    1
    72    52   110    1
    73    52   111    1
    74    53    54    1
    75    54    55    2
    76    54    56    1
    77    56   112    1
    78    56   113    1
    79    56   114    1
    80    57   115    1
    81    57   116    1
    82    57   117    1
    83    58   118    1
    84    58   119    1
    85    58   120    1
    86    59   121    1
    87    59   122    1
    88    59   123    1
    89    60    61    2
    90     1    47    1
    91     1    62    1
    92     2    63    1
    93     3    64    1
    94     4    65    1
    95     5     6    1
    96     7     8    2
    97     9    78    1
    98    15    79    1
    99    18    80    1
   100    18    81    1
   101    19    82    1
   102    19    83    1
   103    20    23    1
   104    21    84    1
   105    21    85    1
   106    22    86    1
   107    22    87    1
   108    27    45    1
   109    28    34    1
   110    32    58    1
   111    33    46    2
   112    36    51    1
   113    36    66    1
   114    37    52    1
   115    37    67    1
   116    38    53    1
   117    38    68    1
   118    42    48    1
   119    42    72    1
   120    43    44    2
   121    60    73    1
   122    61    74    1
   123    39    69    1
   124    39    57    1
   125    40    70    1
   126    40    50    1
   127    41    71    1
   128    41    49    1
