@<TRIPOS>MOLECULE
*****
 123 128 0 0 0
SMALL
GASTEIGER

@<TRIPOS>ATOM
     1 C         2.282108   -3.356925   1.897307 C.3        1 UNL1     0.0009
     2 C         2.553798   -5.09019   1.298131 C.2        1 UNL1     -0.0787
     3 C         2.324838   -6.513965   1.426539 C.2        1 UNL1     -0.0649
     4 C         2.810923   -7.745426   0.371275 C.2        1 UNL1     -0.0542
     5 C         2.581032   -9.082356   -0.037194 C.2        1 UNL1     0.0115
     6 C         1.825453   -10.392476   0.317784 C.3        1 UNL1     -0.0348
     7 C         3.147269   -9.568728   -1.458393 C.2        1 UNL1     0.2441
     8 O         4.156624   -10.250052   -1.574696 O.2        1 UNL1     -0.2702
     9 N         2.266825   -9.382194   -2.538289 N.am        1 UNL1     -0.2772
     10 C         2.434334   -8.130071   -3.083679 C.2        1 UNL1     0.1049
     11 C         1.798716   -7.142387   -2.479782 C.2        1 UNL1     0.0801
     12 C         4.182917   -6.54695   -3.916456 C.ar        1 UNL1     0.0753
     13 C         3.576293   -5.558849   -3.077248 C.ar        1 UNL1     0.0305
     14 C         2.285419   -5.79024   -2.432923 C.2        1 UNL1     0.0924
     15 N         0.840731   -7.179807   -1.537767 N.pl3        1 UNL1     -0.3170
     16 C         0.363149   -5.836568   -1.343143 C.3        1 UNL1     0.1275
     17 N         1.536275   -4.961386   -1.71132 N.2        1 UNL1     -0.2557
     18 C         -0.705758   -5.579012   -2.400878 C.3        1 UNL1     0.0016
     19 C         -1.777876   -6.650218   -2.279756 C.3        1 UNL1     0.0026
     20 N         -2.343799   -6.596118   -0.938923 N.3        1 UNL1     -0.3018
     21 C         -1.380577   -6.771664   0.150001 C.3        1 UNL1     0.0026
     22 C         -0.31544   -5.682525   0.011603 C.3        1 UNL1     0.0016
     23 C         -3.566682   -7.363569   -0.811567 C.3        1 UNL1     0.0012
     24 C         -4.710997   -6.685045   -1.58092 C.3        1 UNL1     -0.0339
     25 C         -5.882311   -7.653   -1.815749 C.3        1 UNL1     -0.0615
     26 C         -5.15943   -5.432002   -0.849093 C.3        1 UNL1     -0.0615
     27 C         5.35211   -6.27468   -4.622838 C.ar        1 UNL1     0.1347
     28 C         5.981843   -5.043015   -4.600744 C.ar        1 UNL1     0.0342
     29 C         5.394077   -4.101237   -3.729682 C.ar        1 UNL1     0.1435
     30 C         4.243408   -4.371621   -2.988013 C.ar        1 UNL1     0.0774
     31 O         5.825402   -2.821977   -3.680092 O.3        1 UNL1     -0.4436
     32 C         4.738293   -2.095439   -3.087461 C.3        1 UNL1     0.3143
     33 C         3.95087   -3.127988   -2.306423 C.2        1 UNL1     0.2504
     34 C         7.086561   -4.600975   -5.519601 C.3        1 UNL1     -0.0327
     35 O         5.302434   -1.18987   -2.130935 O.2        1 UNL1     -0.4528
     36 C         2.963156   1.79738   -2.020456 C.3        1 UNL1     0.0854
     37 C         1.420014   1.843015   -1.697726 C.3        1 UNL1     0.0236
     38 C         1.007018   2.838681   -0.510364 C.3        1 UNL1     0.1131
     39 C         1.76167   2.760972   0.877704 C.3        1 UNL1     0.0200
     40 C         2.097555   1.283437   1.575206 C.3        1 UNL1     0.0661
     41 C         0.990533   0.019004   1.806124 C.3        1 UNL1     0.0091
     42 C         1.240275   -1.79838   1.793952 C.3        1 UNL1     0.0661
     43 C         3.476881   -7.841964   -4.079894 C.2        1 UNL1     0.2131
     44 O         3.652019   -8.58944   -5.025062 O.2        1 UNL1     -0.2851
     45 O         5.902707   -7.305919   -5.381012 O.3        1 UNL1     -0.5056
     46 O         3.256321   -2.964322   -1.328328 O.2        1 UNL1     -0.2836
     47 C         3.121304   -3.090577   3.175896 C.3        1 UNL1     -0.0566
     48 O         0.478995   -2.025954   3.046061 O.3        1 UNL1     -0.3909
     49 C         -0.248815   0.299571   0.985884 C.3        1 UNL1     -0.0577
     50 O         3.324157   0.77021   1.095865 O.3        1 UNL1     -0.3910
     51 O         3.800705   2.492714   -1.124659 O.3        1 UNL1     -0.3753
     52 C         0.745388   0.444535   -1.882333 C.3        1 UNL1     -0.0564
     53 O         -0.464116   3.130372   -0.455534 O.3        1 UNL1     -0.4608
     54 C         -1.144203   3.584641   0.644035 C.2        1 UNL1     0.3042
     55 O         -0.741833   3.627579   1.805971 O.2        1 UNL1     -0.2512
     56 C         -2.507226   4.12986   0.325262 C.3        1 UNL1     0.0332
     57 C         2.926665   3.856627   0.855285 C.3        1 UNL1     -0.0567
     58 C         3.865925   -1.582597   -4.25686 C.3        1 UNL1     0.0210
     59 C         5.083268   2.836143   -1.64711 C.3        1 UNL1     0.0372
     60 C         3.534306   0.431089   -2.169443 C.2        1 UNL1     -0.0208
     61 C         4.661733   -0.092026   -1.685705 C.2        1 UNL1     0.0882
     62 H         2.876494   -2.991669   1.051136 H        1 UNL1     0.0365
     63 H         3.25762   -4.915395   0.481705 H        1 UNL1     0.0576
     64 H         1.642011   -6.918543   2.176987 H        1 UNL1     0.0615
     65 H         3.542479   -7.257879   -0.278808 H        1 UNL1     0.0622
     66 H         3.052654   2.270755   -3.008359 H        1 UNL1     0.0645
     67 H         0.977947   2.349966   -2.573018 H        1 UNL1     0.0362
     68 H         1.315928   3.795976   -0.957222 H        1 UNL1     0.0741
     69 H         1.155656   3.246497   1.630977 H        1 UNL1     0.0359
     70 H         2.318742   1.607078   2.610287 H        1 UNL1     0.0600
     71 H         0.633863   0.258419   2.827116 H        1 UNL1     0.0348
     72 H         2.234489   -1.356723   1.954557 H        1 UNL1     0.0602
     73 H         2.953325   -0.115854   -2.869845 H        1 UNL1     0.0628
     74 H         5.281928   0.378599   -0.92209 H        1 UNL1     0.1022
     75 H         1.187438   -10.244295   1.222224 H        1 UNL1     0.0279
     76 H         1.109728   -10.754069   -0.417102 H        1 UNL1     0.0279
     77 H         2.498923   -11.193395   0.65641 H        1 UNL1     0.0279
     78 H         1.305264   -9.447574   -2.210869 H        1 UNL1     0.1553
     79 H         0.279961   -7.989443   -1.345519 H        1 UNL1     0.1484
     80 H         -1.123001   -4.575959   -2.250681 H        1 UNL1     0.0317
     81 H         -0.271939   -5.590677   -3.40652 H        1 UNL1     0.0317
     82 H         -1.3799   -7.651437   -2.501315 H        1 UNL1     0.0428
     83 H         -2.528976   -6.448658   -3.044134 H        1 UNL1     0.0428
     84 H         -1.81699   -6.647342   1.145943 H        1 UNL1     0.0428
     85 H         -0.963101   -7.78791   0.166605 H        1 UNL1     0.0428
     86 H         0.292575   -5.758358   0.893961 H        1 UNL1     0.0317
     87 H         -0.777578   -4.692282   0.106174 H        1 UNL1     0.0317
     88 H         -3.393599   -8.356563   -1.246653 H        1 UNL1     0.0429
     89 H         -3.833772   -7.516204   0.242064 H        1 UNL1     0.0429
     90 H         -4.337718   -6.345897   -2.554498 H        1 UNL1     0.0308
     91 H         -6.140946   -8.193844   -0.900491 H        1 UNL1     0.0233
     92 H         -6.762409   -7.114467   -2.174941 H        1 UNL1     0.0233
     93 H         -5.653792   -8.408067   -2.577647 H        1 UNL1     0.0233
     94 H         -6.179656   -5.165895   -1.146012 H        1 UNL1     0.0233
     95 H         -5.157687   -5.6088   0.23012 H        1 UNL1     0.0233
     96 H         -4.503474   -4.585076   -1.069104 H        1 UNL1     0.0233
     97 H         8.019727   -5.116146   -5.312159 H        1 UNL1     0.0280
     98 H         6.856572   -4.808214   -6.572888 H        1 UNL1     0.0280
     99 H         7.255442   -3.518314   -5.39952 H        1 UNL1     0.0280
     100 H         5.386632   -7.563856   -6.124489 H        1 UNL1     0.2922
     101 H         2.921629   -2.084361   3.543746 H        1 UNL1     0.0236
     102 H         4.186508   -3.270531   3.034686 H        1 UNL1     0.0236
     103 H         2.831831   -3.755003   4.007122 H        1 UNL1     0.0236
     104 H         1.107528   -1.953088   3.790781 H        1 UNL1     0.2098
     105 H         -1.127236   -0.262594   1.292738 H        1 UNL1     0.0234
     106 H         -0.494692   1.356012   0.879097 H        1 UNL1     0.0234
     107 H         0.0   0.0   -0.0 H        1 UNL1     0.0234
     108 H         3.331909   -0.187696   1.285926 H        1 UNL1     0.2098
     109 H         1.190514   -0.321175   -1.231746 H        1 UNL1     0.0234
     110 H         -0.339445   0.466887   -1.73273 H        1 UNL1     0.0234
     111 H         0.865058   0.069621   -2.907547 H        1 UNL1     0.0234
     112 H         -3.222462   3.815023   1.0912 H        1 UNL1     0.0342
     113 H         -2.500252   5.213612   0.219076 H        1 UNL1     0.0342
     114 H         -2.831572   3.703491   -0.633995 H        1 UNL1     0.0342
     115 H         2.547085   4.850819   0.581991 H        1 UNL1     0.0234
     116 H         3.459391   3.957639   1.802939 H        1 UNL1     0.0234
     117 H         3.673898   3.688031   0.060829 H        1 UNL1     0.0234
     118 H         2.789095   -1.612335   -4.014869 H        1 UNL1     0.0309
     119 H         4.132498   -0.571438   -4.580433 H        1 UNL1     0.0309
     120 H         3.942233   -2.215963   -5.147439 H        1 UNL1     0.0309
     121 H         5.768728   2.92715   -0.804959 H        1 UNL1     0.0524
     122 H         5.48356   2.058203   -2.318387 H        1 UNL1     0.0524
     123 H         5.028875   3.775864   -2.189383 H        1 UNL1     0.0524
@<TRIPOS>BOND
     1     1     2    1
     2     1    42    1
     3     2     3    2
     4     3     4    1
     5     4     5    2
     6     5     7    1
     7     6    75    1
     8     6    76    1
     9     6    77    1
    10     7     9   am
    11     9    10    1
    12    10    11    2
    13    10    43    1
    14    11    14    1
    15    11    15    1
    16    12    13   ar
    17    12    27   ar
    18    12    43    1
    19    13    14    1
    20    13    30   ar
    21    14    17    2
    22    15    16    1
    23    16    17    1
    24    16    18    1
    25    16    22    1
    26    18    19    1
    27    19    20    1
    28    20    21    1
    29    21    22    1
    30    23    24    1
    31    23    88    1
    32    23    89    1
    33    24    25    1
    34    24    26    1
    35    24    90    1
    36    25    91    1
    37    25    92    1
    38    25    93    1
    39    26    94    1
    40    26    95    1
    41    26    96    1
    42    27    28   ar
    43    28    29   ar
    44    29    30   ar
    45    29    31    1
    46    30    33    1
    47    31    32    1
    48    32    33    1
    49    32    35    1
    50    34    97    1
    51    34    98    1
    52    34    99    1
    53    35    61    1
    54    36    37    1
    55    36    60    1
    56    37    38    1
    57    38    39    1
    58    39    40    1
    59    40    41    1
    60    41    42    1
    61    45   100    1
    62    47   101    1
    63    47   102    1
    64    47   103    1
    65    48   104    1
    66    49   105    1
    67    49   106    1
    68    49   107    1
    69    50   108    1
    70    51    59    1
    71    52   109    1
    72    52   110    1
    73    52   111    1
    74    53    54    1
    75    54    55    2
    76    54    56    1
    77    56   112    1
    78    56   113    1
    79    56   114    1
    80    57   115    1
    81    57   116    1
    82    57   117    1
    83    58   118    1
    84    58   119    1
    85    58   120    1
    86    59   121    1
    87    59   122    1
    88    59   123    1
    89    60    61    2
    90     1    47    1
    91     1    62    1
    92     2    63    1
    93     3    64    1
    94     4    65    1
    95     5     6    1
    96     7     8    2
    97     9    78    1
    98    15    79    1
    99    18    80    1
   100    18    81    1
   101    19    82    1
   102    19    83    1
   103    20    23    1
   104    21    84    1
   105    21    85    1
   106    22    86    1
   107    22    87    1
   108    27    45    1
   109    28    34    1
   110    32    58    1
   111    33    46    2
   112    36    51    1
   113    36    66    1
   114    37    52    1
   115    37    67    1
   116    38    53    1
   117    38    68    1
   118    42    48    1
   119    42    72    1
   120    43    44    2
   121    60    73    1
   122    61    74    1
   123    39    69    1
   124    39    57    1
   125    40    70    1
   126    40    50    1
   127    41    71    1
   128    41    49    1
