@<TRIPOS>MOLECULE
*****
 123 128 0 0 0
SMALL
GASTEIGER

@<TRIPOS>ATOM
     1 C         0.096631   -2.72989   -3.091874 C.3        1 UNL1     0.0009
     2 C         1.506769   -3.823243   -3.594994 C.2        1 UNL1     -0.0787
     3 C         2.658293   -4.082051   -4.433478 C.2        1 UNL1     -0.0649
     4 C         3.753161   -5.369204   -4.329279 C.2        1 UNL1     -0.0542
     5 C         5.048309   -5.823144   -4.680859 C.2        1 UNL1     0.0115
     6 C         6.29882   -5.506589   -5.546503 C.3        1 UNL1     -0.0348
     7 C         5.677568   -7.067874   -3.886082 C.2        1 UNL1     0.2441
     8 O         5.716376   -8.200519   -4.346662 O.2        1 UNL1     -0.2702
     9 N         6.414029   -6.722993   -2.73942 N.am        1 UNL1     -0.2772
     10 C         5.587415   -6.649717   -1.641849 C.2        1 UNL1     0.1049
     11 C         4.931468   -5.514642   -1.481967 C.2        1 UNL1     0.0801
     12 C         3.799432   -7.900007   -0.418238 C.ar        1 UNL1     0.0753
     13 C         3.036421   -6.689638   -0.456043 C.ar        1 UNL1     0.0305
     14 C         3.632175   -5.422291   -0.873128 C.2        1 UNL1     0.0924
     15 N         5.090756   -4.330742   -2.098032 N.pl3        1 UNL1     -0.3170
     16 C         4.24179   -3.374452   -1.438472 C.3        1 UNL1     0.1275
     17 N         3.110134   -4.199019   -0.875297 N.2        1 UNL1     -0.2557
     18 C         5.013557   -2.837795   -0.236774 C.3        1 UNL1     0.0016
     19 C         6.338023   -2.271224   -0.72296 C.3        1 UNL1     0.0026
     20 N         6.068591   -1.213731   -1.6874 N.3        1 UNL1     -0.3018
     21 C         5.277239   -1.619989   -2.850623 C.3        1 UNL1     0.0026
     22 C         3.949497   -2.181679   -2.339252 C.3        1 UNL1     0.0016
     23 C         7.238018   -0.411168   -1.985686 C.3        1 UNL1     0.0012
     24 C         8.352685   -0.682629   -0.963148 C.3        1 UNL1     -0.0339
     25 C         8.42263   -2.172504   -0.589735 C.3        1 UNL1     -0.0615
     26 C         9.682171   -0.176734   -1.495421 C.3        1 UNL1     -0.0615
     27 C         3.260011   -9.077536   0.094177 C.ar        1 UNL1     0.1347
     28 C         1.987644   -9.157657   0.631497 C.ar        1 UNL1     0.0342
     29 C         1.237644   -7.965979   0.538943 C.ar        1 UNL1     0.1435
     30 C         1.752256   -6.788343   -0.00472 C.ar        1 UNL1     0.0774
     31 O         0.021485   -7.852066   1.115994 O.3        1 UNL1     -0.4436
     32 C         -0.196876   -6.437431   1.225543 C.3        1 UNL1     0.3143
     33 C         0.693136   -5.816155   0.168137 C.2        1 UNL1     0.2504
     34 C         1.435426   -10.310975   1.422074 C.3        1 UNL1     -0.0327
     35 O         -1.551272   -6.183775   0.832451 O.2        1 UNL1     -0.4528
     36 C         -2.649977   -3.12733   2.796906 C.3        1 UNL1     0.0854
     37 C         -2.008465   -1.68715   2.840082 C.3        1 UNL1     0.0236
     38 C         -3.013496   -0.488706   2.485981 C.3        1 UNL1     0.1131
     39 C         -3.887396   -0.559979   1.16936 C.3        1 UNL1     0.0200
     40 C         -3.210261   -1.068934   -0.267612 C.3        1 UNL1     0.0661
     41 C         -1.763514   -0.495294   -0.942498 C.3        1 UNL1     0.0091
     42 C         -0.506713   -1.352294   -1.967879 C.3        1 UNL1     0.0661
     43 C         5.214689   -7.838311   -0.860393 C.2        1 UNL1     0.2131
     44 O         6.060261   -8.648138   -0.525842 O.2        1 UNL1     -0.2851
     45 O         4.053366   -10.222212   0.05242 O.3        1 UNL1     -0.5056
     46 O         0.548565   -4.765669   -0.416186 O.2        1 UNL1     -0.2836
     47 C         -1.040155   -2.796122   -4.147011 C.3        1 UNL1     -0.0566
     48 O         -0.425883   -0.268957   -2.977316 O.3        1 UNL1     -0.3909
     49 C         -1.013198   0.29201   0.108536 C.3        1 UNL1     -0.0577
     50 O         -3.270723   -2.476627   -0.379273 O.3        1 UNL1     -0.3910
     51 O         -3.962948   -3.20191   2.288992 O.3        1 UNL1     -0.3753
     52 C         -0.522612   -1.697235   2.353164 C.3        1 UNL1     -0.0564
     53 O         -2.492117   0.865399   2.869242 O.3        1 UNL1     -0.4608
     54 C         -3.26209   1.964127   3.148291 C.2        1 UNL1     0.3042
     55 O         -3.106771   2.772168   4.06305 O.2        1 UNL1     -0.2512
     56 C         -4.371922   2.187259   2.16077 C.3        1 UNL1     0.0332
     57 C         -5.317174   -1.15373   1.571068 C.3        1 UNL1     -0.0567
     58 C         0.322151   -6.021546   2.621674 C.3        1 UNL1     0.0210
     59 C         -4.634018   -4.43557   2.541208 C.3        1 UNL1     0.0372
     60 C         -1.849891   -4.1506   2.07031 C.2        1 UNL1     -0.0208
     61 C         -2.226518   -5.072442   1.183121 C.2        1 UNL1     0.0882
     62 H         -0.16031   -3.453828   -2.309182 H        1 UNL1     0.0365
     63 H         1.326182   -4.693381   -2.960394 H        1 UNL1     0.0576
     64 H         3.028388   -3.338642   -5.143042 H        1 UNL1     0.0615
     65 H         3.255554   -6.08153   -3.665606 H        1 UNL1     0.0622
     66 H         -2.671523   -3.451488   3.846908 H        1 UNL1     0.0645
     67 H         -1.823166   -1.508278   3.913502 H        1 UNL1     0.0362
     68 H         -3.727811   -0.596216   3.316473 H        1 UNL1     0.0741
     69 H         -4.235109   0.435664   0.928114 H        1 UNL1     0.0359
     70 H         -3.974566   -0.701946   -0.979102 H        1 UNL1     0.0600
     71 H         -2.157984   0.318155   -1.582538 H        1 UNL1     0.0348
     72 H         -1.421779   -1.957808   -2.040841 H        1 UNL1     0.0602
     73 H         -0.859213   -4.155101   2.452127 H        1 UNL1     0.0628
     74 H         -3.204176   -5.100998   0.700827 H        1 UNL1     0.1022
     75 H         6.182083   -4.520907   -6.058204 H        1 UNL1     0.0279
     76 H         7.23921   -5.384091   -5.01384 H        1 UNL1     0.0279
     77 H         6.404485   -6.185533   -6.405323 H        1 UNL1     0.0279
     78 H         6.835885   -5.805476   -2.866998 H        1 UNL1     0.1553
     79 H         5.922885   -4.068261   -2.593611 H        1 UNL1     0.1484
     80 H         4.409204   -2.071057   0.262863 H        1 UNL1     0.0317
     81 H         5.188784   -3.628511   0.500596 H        1 UNL1     0.0317
     82 H         6.978797   -3.05136   -1.159661 H        1 UNL1     0.0428
     83 H         6.872912   -1.895759   0.149949 H        1 UNL1     0.0428
     84 H         5.021481   -0.791317   -3.518232 H        1 UNL1     0.0428
     85 H         5.826515   -2.321172   -3.494016 H        1 UNL1     0.0428
     86 H         3.347405   -2.343415   -3.214074 H        1 UNL1     0.0317
     87 H         3.399887   -1.405495   -1.792841 H        1 UNL1     0.0317
     88 H         7.601405   -0.694268   -2.982229 H        1 UNL1     0.0429
     89 H         6.988915   0.657066   -2.02568 H        1 UNL1     0.0429
     90 H         8.154387   -0.103577   -0.053429 H        1 UNL1     0.0308
     91 H         9.16698   -2.352138   0.191787 H        1 UNL1     0.0233
     92 H         7.449147   -2.530968   -0.247034 H        1 UNL1     0.0233
     93 H         8.698176   -2.804356   -1.442773 H        1 UNL1     0.0233
     94 H         10.142939   -0.932536   -2.140628 H        1 UNL1     0.0233
     95 H         9.526445   0.726354   -2.092199 H        1 UNL1     0.0233
     96 H         10.376259   0.052943   -0.68212 H        1 UNL1     0.0233
     97 H         0.558285   -10.744822   0.951297 H        1 UNL1     0.0280
     98 H         2.159885   -11.129984   1.520256 H        1 UNL1     0.0280
     99 H         1.151577   -9.965467   2.42962 H        1 UNL1     0.0280
     100 H         3.973651   -10.781497   0.80506 H        1 UNL1     0.2922
     101 H         -1.918711   -2.269823   -3.774446 H        1 UNL1     0.0236
     102 H         -1.274909   -3.812644   -4.460946 H        1 UNL1     0.0236
     103 H         -0.772224   -2.269278   -5.078054 H        1 UNL1     0.0236
     104 H         -0.855609   0.52176   -2.596431 H        1 UNL1     0.2098
     105 H         -1.063859   1.370658   -0.017019 H        1 UNL1     0.0234
     106 H         -1.250301   0.019847   1.136951 H        1 UNL1     0.0234
     107 H         0.0   0.0   0.0 H        1 UNL1     0.0234
     108 H         -2.412816   -2.776382   -0.736919 H        1 UNL1     0.2098
     109 H         0.17629   -1.390207   3.143721 H        1 UNL1     0.0234
     110 H         -0.210548   -2.663881   1.943341 H        1 UNL1     0.0234
     111 H         -0.363128   -0.993242   1.525574 H        1 UNL1     0.0234
     112 H         -4.938674   3.082552   2.433879 H        1 UNL1     0.0342
     113 H         -4.002973   2.255147   1.138463 H        1 UNL1     0.0342
     114 H         -5.054596   1.327896   2.211898 H        1 UNL1     0.0342
     115 H         -6.099549   -0.382545   1.552345 H        1 UNL1     0.0234
     116 H         -5.65114   -1.975806   0.934902 H        1 UNL1     0.0234
     117 H         -5.374694   -1.490206   2.620552 H        1 UNL1     0.0234
     118 H         0.237596   -4.93337   2.788196 H        1 UNL1     0.0309
     119 H         -0.177445   -6.549043   3.440424 H        1 UNL1     0.0309
     120 H         1.393459   -6.213616   2.746231 H        1 UNL1     0.0309
     121 H         -5.705611   -4.243256   2.495817 H        1 UNL1     0.0524
     122 H         -4.401674   -5.201019   1.782169 H        1 UNL1     0.0524
     123 H         -4.362904   -4.817347   3.521432 H        1 UNL1     0.0524
@<TRIPOS>BOND
     1     1     2    1
     2     1    42    1
     3     2     3    2
     4     3     4    1
     5     4     5    2
     6     5     7    1
     7     6    75    1
     8     6    76    1
     9     6    77    1
    10     7     9   am
    11     9    10    1
    12    10    11    2
    13    10    43    1
    14    11    14    1
    15    11    15    1
    16    12    13   ar
    17    12    27   ar
    18    12    43    1
    19    13    14    1
    20    13    30   ar
    21    14    17    2
    22    15    16    1
    23    16    17    1
    24    16    18    1
    25    16    22    1
    26    18    19    1
    27    19    20    1
    28    20    21    1
    29    21    22    1
    30    23    24    1
    31    23    88    1
    32    23    89    1
    33    24    25    1
    34    24    26    1
    35    24    90    1
    36    25    91    1
    37    25    92    1
    38    25    93    1
    39    26    94    1
    40    26    95    1
    41    26    96    1
    42    27    28   ar
    43    28    29   ar
    44    29    30   ar
    45    29    31    1
    46    30    33    1
    47    31    32    1
    48    32    33    1
    49    32    35    1
    50    34    97    1
    51    34    98    1
    52    34    99    1
    53    35    61    1
    54    36    37    1
    55    36    60    1
    56    37    38    1
    57    38    39    1
    58    39    40    1
    59    40    41    1
    60    41    42    1
    61    45   100    1
    62    47   101    1
    63    47   102    1
    64    47   103    1
    65    48   104    1
    66    49   105    1
    67    49   106    1
    68    49   107    1
    69    50   108    1
    70    51    59    1
    71    52   109    1
    72    52   110    1
    73    52   111    1
    74    53    54    1
    75    54    55    2
    76    54    56    1
    77    56   112    1
    78    56   113    1
    79    56   114    1
    80    57   115    1
    81    57   116    1
    82    57   117    1
    83    58   118    1
    84    58   119    1
    85    58   120    1
    86    59   121    1
    87    59   122    1
    88    59   123    1
    89    60    61    2
    90     1    47    1
    91     1    62    1
    92     2    63    1
    93     3    64    1
    94     4    65    1
    95     5     6    1
    96     7     8    2
    97     9    78    1
    98    15    79    1
    99    18    80    1
   100    18    81    1
   101    19    82    1
   102    19    83    1
   103    20    23    1
   104    21    84    1
   105    21    85    1
   106    22    86    1
   107    22    87    1
   108    27    45    1
   109    28    34    1
   110    32    58    1
   111    33    46    2
   112    36    51    1
   113    36    66    1
   114    37    52    1
   115    37    67    1
   116    38    53    1
   117    38    68    1
   118    42    48    1
   119    42    72    1
   120    43    44    2
   121    60    73    1
   122    61    74    1
   123    39    69    1
   124    39    57    1
   125    40    70    1
   126    40    50    1
   127    41    71    1
   128    41    49    1
