@<TRIPOS>MOLECULE
*****
 123 128 0 0 0
SMALL
GASTEIGER

@<TRIPOS>ATOM
     1 C         1.19084   -1.0374   -3.928295 C.3        1 UNL1     0.0009
     2 C         0.183602   -1.898916   -5.224559 C.2        1 UNL1     -0.0787
     3 C         -0.127219   -3.088639   -5.988754 C.2        1 UNL1     -0.0649
     4 C         -1.393022   -3.317105   -7.089618 C.2        1 UNL1     -0.0542
     5 C         -2.188457   -4.278045   -7.76115 C.2        1 UNL1     0.0115
     6 C         -2.336141   -5.793658   -8.068442 C.3        1 UNL1     -0.0348
     7 C         -3.580891   -3.815581   -8.412491 C.2        1 UNL1     0.2441
     8 O         -3.721353   -3.617319   -9.611444 O.2        1 UNL1     -0.2702
     9 N         -4.691092   -3.906032   -7.554924 N.am        1 UNL1     -0.2772
     10 C         -4.832808   -2.745833   -6.828854 C.2        1 UNL1     0.1049
     11 C         -4.086103   -2.643017   -5.744381 C.2        1 UNL1     0.0801
     12 C         -4.905006   -0.256297   -7.061937 C.ar        1 UNL1     0.0753
     13 C         -3.930671   -0.208437   -6.014565 C.ar        1 UNL1     0.0305
     14 C         -3.588473   -1.394698   -5.233068 C.2        1 UNL1     0.0924
     15 N         -3.355313   -3.573952   -5.10733 N.pl3        1 UNL1     -0.3170
     16 C         -2.87243   -2.99172   -3.883368 C.3        1 UNL1     0.1275
     17 N         -2.792391   -1.51296   -4.174204 N.2        1 UNL1     -0.2557
     18 C         -3.971625   -3.158947   -2.838616 C.3        1 UNL1     0.0016
     19 C         -4.324343   -4.634271   -2.73566 C.3        1 UNL1     0.0026
     20 N         -3.128327   -5.376138   -2.361216 N.3        1 UNL1     -0.3018
     21 C         -1.993443   -5.2281   -3.274721 C.3        1 UNL1     0.0026
     22 C         -1.653203   -3.739164   -3.359572 C.3        1 UNL1     0.0016
     23 C         -3.414392   -6.735176   -1.946698 C.3        1 UNL1     0.0012
     24 C         -4.892634   -7.074162   -2.194983 C.3        1 UNL1     -0.0339
     25 C         -5.439321   -8.027363   -1.119531 C.3        1 UNL1     -0.0615
     26 C         -5.712315   -5.798363   -2.280066 C.3        1 UNL1     -0.0615
     27 C         -5.313833   0.900802   -7.720802 C.ar        1 UNL1     0.1347
     28 C         -4.850618   2.162934   -7.394453 C.ar        1 UNL1     0.0342
     29 C         -3.856022   2.180157   -6.393631 C.ar        1 UNL1     0.1435
     30 C         -3.410313   1.025122   -5.749846 C.ar        1 UNL1     0.0774
     31 O         -3.384837   3.340997   -5.888219 O.3        1 UNL1     -0.4436
     32 C         -2.792789   2.975959   -4.632393 C.3        1 UNL1     0.3143
     33 C         -2.464583   1.502346   -4.762619 C.2        1 UNL1     0.2504
     34 C         -5.423668   3.465253   -7.879922 C.3        1 UNL1     -0.0327
     35 O         -1.545415   3.673787   -4.530672 O.2        1 UNL1     -0.4528
     36 C         -0.978587   4.256975   -0.82302 C.3        1 UNL1     0.0854
     37 C         -0.90379   3.206247   0.35082 C.3        1 UNL1     0.0236
     38 C         0.433068   3.273597   1.234007 C.3        1 UNL1     0.1131
     39 C         1.845664   3.264222   0.522139 C.3        1 UNL1     0.0200
     40 C         2.148232   2.21774   -0.741097 C.3        1 UNL1     0.0661
     41 C         1.840237   0.549587   -0.745037 C.3        1 UNL1     0.0091
     42 C         1.362252   -0.569046   -2.118205 C.3        1 UNL1     0.0661
     43 C         -5.531813   -1.567373   -7.362687 C.2        1 UNL1     0.2131
     44 O         -6.607687   -1.686928   -7.920306 O.2        1 UNL1     -0.2851
     45 O         -6.23225   0.761501   -8.759332 O.3        1 UNL1     -0.5056
     46 O         -1.602039   0.869498   -4.195719 O.2        1 UNL1     -0.2836
     47 C         2.608836   -0.716119   -4.472395 C.3        1 UNL1     -0.0566
     48 O         2.364956   -1.606015   -1.774121 O.3        1 UNL1     -0.3909
     49 C         0.94554   0.215759   0.42781 C.3        1 UNL1     -0.0577
     50 O         1.74492   2.786444   -1.970584 O.3        1 UNL1     -0.3910
     51 O         0.195901   4.999553   -1.060893 O.3        1 UNL1     -0.3753
     52 C         -1.574495   1.848836   -0.039742 C.3        1 UNL1     -0.0564
     53 O         0.333916   2.52607   2.531581 O.3        1 UNL1     -0.4608
     54 C         1.394722   2.069268   3.269113 C.2        1 UNL1     0.3042
     55 O         1.700909   2.391917   4.416277 O.2        1 UNL1     -0.2512
     56 C         2.206868   1.018196   2.567414 C.3        1 UNL1     0.0332
     57 C         2.313365   4.784963   0.358502 C.3        1 UNL1     -0.0567
     58 C         -3.89568   3.148741   -3.562203 C.3        1 UNL1     0.0210
     59 C         -0.000958   6.221348   -1.771056 C.3        1 UNL1     0.0372
     60 C         -1.409876   3.70373   -2.135677 C.2        1 UNL1     -0.0208
     61 C         -0.919171   3.90073   -3.360073 C.2        1 UNL1     0.0882
     62 H         0.584698   -0.136683   -4.083249 H        1 UNL1     0.0365
     63 H         -0.430096   -1.072169   -5.588337 H        1 UNL1     0.0576
     64 H         0.363325   -4.043371   -5.786364 H        1 UNL1     0.0615
     65 H         -1.757689   -2.304305   -7.281291 H        1 UNL1     0.0622
     66 H         -1.768634   4.957076   -0.516865 H        1 UNL1     0.0645
     67 H         -1.661737   3.556543   1.072879 H        1 UNL1     0.0362
     68 H         0.324961   4.285034   1.654517 H        1 UNL1     0.0741
     69 H         2.598782   2.985043   1.246902 H        1 UNL1     0.0359
     70 H         3.253891   2.262473   -0.765121 H        1 UNL1     0.0600
     71 H         2.817859   0.171687   -0.386701 H        1 UNL1     0.0348
     72 H         1.794338   0.324612   -2.591483 H        1 UNL1     0.0602
     73 H         -2.317427   3.16782   -2.007617 H        1 UNL1     0.0628
     74 H         0.033217   4.387985   -3.571681 H        1 UNL1     0.1022
     75 H         -1.359733   -6.223781   -8.39807 H        1 UNL1     0.0279
     76 H         -2.603795   -6.434551   -7.231371 H        1 UNL1     0.0279
     77 H         -2.967285   -5.989805   -8.94758 H        1 UNL1     0.0279
     78 H         -4.550923   -4.666468   -6.892982 H        1 UNL1     0.1553
     79 H         -3.487092   -4.561787   -5.22459 H        1 UNL1     0.1484
     80 H         -3.615999   -2.764258   -1.87918 H        1 UNL1     0.0317
     81 H         -4.859126   -2.576193   -3.107673 H        1 UNL1     0.0317
     82 H         -4.750109   -5.017576   -3.674655 H        1 UNL1     0.0428
     83 H         -5.111014   -4.730651   -1.98672 H        1 UNL1     0.0428
     84 H         -1.084183   -5.730038   -2.929588 H        1 UNL1     0.0428
     85 H         -2.194676   -5.684184   -4.253909 H        1 UNL1     0.0428
     86 H         -0.742353   -3.682128   -3.926217 H        1 UNL1     0.0317
     87 H         -1.360932   -3.364648   -2.37093 H        1 UNL1     0.0317
     88 H         -2.794597   -7.413227   -2.54786 H        1 UNL1     0.0429
     89 H         -3.142067   -6.897232   -0.895817 H        1 UNL1     0.0429
     90 H         -4.990525   -7.558891   -3.173589 H        1 UNL1     0.0308
     91 H         -4.980508   -9.01773   -1.195467 H        1 UNL1     0.0233
     92 H         -5.260473   -7.624962   -0.119683 H        1 UNL1     0.0233
     93 H         -6.523398   -8.17185   -1.201597 H        1 UNL1     0.0233
     94 H         -5.054037   -4.92352   -2.246062 H        1 UNL1     0.0233
     95 H         -6.262277   -5.769911   -3.224891 H        1 UNL1     0.0233
     96 H         -6.425545   -5.726469   -1.454171 H        1 UNL1     0.0233
     97 H         -4.962476   4.319765   -7.393772 H        1 UNL1     0.0280
     98 H         -5.266201   3.6109   -8.956606 H        1 UNL1     0.0280
     99 H         -6.505975   3.492307   -7.672616 H        1 UNL1     0.0280
     100 H         -6.892202   0.106732   -8.613171 H        1 UNL1     0.2922
     101 H         2.678423   0.344302   -4.713894 H        1 UNL1     0.0236
     102 H         2.898748   -1.346715   -5.312206 H        1 UNL1     0.0236
     103 H         3.391196   -0.882146   -3.713092 H        1 UNL1     0.0236
     104 H         3.190039   -1.387978   -2.250219 H        1 UNL1     0.2098
     105 H         1.259074   -0.654889   0.998319 H        1 UNL1     0.0234
     106 H         0.740343   1.051683   1.096429 H        1 UNL1     0.0234
     107 H         -0.0   0.0   0.0 H        1 UNL1     0.0234
     108 H         1.659566   2.056479   -2.613728 H        1 UNL1     0.2098
     109 H         -1.100981   1.388426   -0.918103 H        1 UNL1     0.0234
     110 H         -1.597834   1.127515   0.784209 H        1 UNL1     0.0234
     111 H         -2.631257   1.981735   -0.307207 H        1 UNL1     0.0234
     112 H         2.407976   0.186418   3.249357 H        1 UNL1     0.0342
     113 H         1.72423   0.668337   1.656095 H        1 UNL1     0.0342
     114 H         3.171155   1.462079   2.28407 H        1 UNL1     0.0342
     115 H         2.271253   5.330003   1.311574 H        1 UNL1     0.0234
     116 H         3.323416   4.89833   -0.040238 H        1 UNL1     0.0234
     117 H         1.63175   5.390341   -0.263478 H        1 UNL1     0.0234
     118 H         -3.85531   2.357069   -2.793678 H        1 UNL1     0.0309
     119 H         -3.868199   4.126541   -3.070923 H        1 UNL1     0.0309
     120 H         -4.904188   3.04632   -3.977569 H        1 UNL1     0.0309
     121 H         -0.077557   5.978239   -2.830483 H        1 UNL1     0.0524
     122 H         -0.935005   6.729382   -1.478662 H        1 UNL1     0.0524
     123 H         0.834681   6.894144   -1.600334 H        1 UNL1     0.0524
@<TRIPOS>BOND
     1     1     2    1
     2     1    42    1
     3     2     3    2
     4     3     4    1
     5     4     5    2
     6     5     7    1
     7     6    75    1
     8     6    76    1
     9     6    77    1
    10     7     9   am
    11     9    10    1
    12    10    11    2
    13    10    43    1
    14    11    14    1
    15    11    15    1
    16    12    13   ar
    17    12    27   ar
    18    12    43    1
    19    13    14    1
    20    13    30   ar
    21    14    17    2
    22    15    16    1
    23    16    17    1
    24    16    18    1
    25    16    22    1
    26    18    19    1
    27    19    20    1
    28    20    21    1
    29    21    22    1
    30    23    24    1
    31    23    88    1
    32    23    89    1
    33    24    25    1
    34    24    26    1
    35    24    90    1
    36    25    91    1
    37    25    92    1
    38    25    93    1
    39    26    94    1
    40    26    95    1
    41    26    96    1
    42    27    28   ar
    43    28    29   ar
    44    29    30   ar
    45    29    31    1
    46    30    33    1
    47    31    32    1
    48    32    33    1
    49    32    35    1
    50    34    97    1
    51    34    98    1
    52    34    99    1
    53    35    61    1
    54    36    37    1
    55    36    60    1
    56    37    38    1
    57    38    39    1
    58    39    40    1
    59    40    41    1
    60    41    42    1
    61    45   100    1
    62    47   101    1
    63    47   102    1
    64    47   103    1
    65    48   104    1
    66    49   105    1
    67    49   106    1
    68    49   107    1
    69    50   108    1
    70    51    59    1
    71    52   109    1
    72    52   110    1
    73    52   111    1
    74    53    54    1
    75    54    55    2
    76    54    56    1
    77    56   112    1
    78    56   113    1
    79    56   114    1
    80    57   115    1
    81    57   116    1
    82    57   117    1
    83    58   118    1
    84    58   119    1
    85    58   120    1
    86    59   121    1
    87    59   122    1
    88    59   123    1
    89    60    61    2
    90     1    47    1
    91     1    62    1
    92     2    63    1
    93     3    64    1
    94     4    65    1
    95     5     6    1
    96     7     8    2
    97     9    78    1
    98    15    79    1
    99    18    80    1
   100    18    81    1
   101    19    82    1
   102    19    83    1
   103    20    23    1
   104    21    84    1
   105    21    85    1
   106    22    86    1
   107    22    87    1
   108    27    45    1
   109    28    34    1
   110    32    58    1
   111    33    46    2
   112    36    51    1
   113    36    66    1
   114    37    52    1
   115    37    67    1
   116    38    53    1
   117    38    68    1
   118    42    48    1
   119    42    72    1
   120    43    44    2
   121    60    73    1
   122    61    74    1
   123    39    69    1
   124    39    57    1
   125    40    70    1
   126    40    50    1
   127    41    71    1
   128    41    49    1
