@<TRIPOS>MOLECULE
*****
 123 128 0 0 0
SMALL
GASTEIGER

@<TRIPOS>ATOM
     1 C         -4.097682   -1.766357   3.140074 C.3        1 UNL1     0.0009
     2 C         -5.524993   -1.241409   4.200381 C.2        1 UNL1     -0.0787
     3 C         -6.122191   -1.070708   5.50815 C.2        1 UNL1     -0.0649
     4 C         -7.601803   -0.341422   5.889266 C.2        1 UNL1     -0.0542
     5 C         -8.367647   0.263444   6.916251 C.2        1 UNL1     0.0115
     6 C         -8.432276   0.528056   8.445671 C.3        1 UNL1     -0.0348
     7 C         -9.628255   1.171808   6.512856 C.2        1 UNL1     0.2441
     8 O         -10.783956   0.778216   6.590102 O.2        1 UNL1     -0.2702
     9 N         -9.334555   2.532148   6.314444 N.am        1 UNL1     -0.2772
     10 C         -8.961546   2.757486   5.009296 C.2        1 UNL1     0.1049
     11 C         -7.698538   2.509115   4.713755 C.2        1 UNL1     0.0801
     12 C         -9.643591   2.306386   2.645262 C.ar        1 UNL1     0.0753
     13 C         -8.305073   1.847799   2.429217 C.ar        1 UNL1     0.0305
     14 C         -7.254464   2.058139   3.422711 C.2        1 UNL1     0.0924
     15 N         -6.653088   2.268595   5.523515 N.pl3        1 UNL1     -0.3170
     16 C         -5.46661   2.232618   4.710354 C.3        1 UNL1     0.1275
     17 N         -5.953222   1.792453   3.351242 N.2        1 UNL1     -0.2557
     18 C         -4.989016   3.671975   4.543452 C.3        1 UNL1     0.0016
     19 C         -4.787011   4.280308   5.922116 C.3        1 UNL1     0.0026
     20 N         -3.806144   3.48339   6.64589 N.3        1 UNL1     -0.3018
     21 C         -4.148887   2.068446   6.803466 C.3        1 UNL1     0.0026
     22 C         -4.342723   1.476359   5.406414 C.3        1 UNL1     0.0016
     23 C         -3.320756   4.138511   7.844163 C.3        1 UNL1     0.0012
     24 C         -2.43199   5.338123   7.479773 C.3        1 UNL1     -0.0339
     25 C         -1.204219   5.428718   8.400874 C.3        1 UNL1     -0.0615
     26 C         -2.029263   5.262669   6.017276 C.3        1 UNL1     -0.0615
     27 C         -10.609443   2.210564   1.64623 C.ar        1 UNL1     0.1347
     28 C         -10.346177   1.713157   0.382376 C.ar        1 UNL1     0.0342
     29 C         -9.034556   1.222678   0.208469 C.ar        1 UNL1     0.1435
     30 C         -8.066442   1.278907   1.21187 C.ar        1 UNL1     0.0774
     31 O         -8.591506   0.807873   -0.998449 O.3        1 UNL1     -0.4436
     32 C         -7.160384   0.847113   -0.89251 C.3        1 UNL1     0.3143
     33 C         -6.870169   0.748941   0.591522 C.2        1 UNL1     0.2504
     34 C         -11.255795   1.810584   -0.810605 C.3        1 UNL1     -0.0327
     35 O         -6.65555   -0.350248   -1.496431 O.2        1 UNL1     -0.4528
     36 C         -3.238103   0.545402   -2.884579 C.3        1 UNL1     0.0854
     37 C         -1.980682   1.132102   -2.134781 C.3        1 UNL1     0.0236
     38 C         -0.633904   0.27799   -2.303376 C.3        1 UNL1     0.1131
     39 C         -0.650192   -1.277999   -2.01894 C.3        1 UNL1     0.0200
     40 C         -1.448625   -1.884909   -0.686048 C.3        1 UNL1     0.0661
     41 C         -1.28728   -1.327456   0.907948 C.3        1 UNL1     0.0091
     42 C         -2.507646   -1.265582   2.276261 C.3        1 UNL1     0.0661
     43 C         -9.946262   2.96941   3.937953 C.2        1 UNL1     0.2131
     44 O         -10.883104   3.72995   4.101181 O.2        1 UNL1     -0.2851
     45 O         -11.899617   2.637986   1.95315 O.3        1 UNL1     -0.5056
     46 O         -5.882974   0.311161   1.138924 O.2        1 UNL1     -0.2836
     47 C         -4.022462   -3.315138   3.065229 C.3        1 UNL1     -0.0566
     48 O         -1.584507   -1.851211   3.278244 O.3        1 UNL1     -0.3909
     49 C         -0.578251   0.008354   0.888355 C.3        1 UNL1     -0.0577
     50 O         -2.811213   -2.117481   -0.980985 O.3        1 UNL1     -0.3910
     51 O         -3.072895   -0.731778   -3.45812 O.3        1 UNL1     -0.3753
     52 C         -2.373431   1.805981   -0.779574 C.3        1 UNL1     -0.0564
     53 O         0.603431   1.019795   -1.88979 O.3        1 UNL1     -0.4608
     54 C         1.683335   0.470255   -1.249678 C.2        1 UNL1     0.3042
     55 O         2.71876   0.046306   -1.761539 O.2        1 UNL1     -0.2512
     56 C         1.554795   0.461352   0.247022 C.3        1 UNL1     0.0332
     57 C         -0.864192   -2.021914   -3.418572 C.3        1 UNL1     -0.0567
     58 C         -6.722663   2.242549   -1.395192 C.3        1 UNL1     0.0210
     59 C         -2.994368   -0.743478   -4.882747 C.3        1 UNL1     0.0372
     60 C         -4.485819   0.494158   -2.074802 C.2        1 UNL1     -0.0208
     61 C         -5.390726   -0.476498   -1.941703 C.2        1 UNL1     0.0882
     62 H         -4.657783   -1.437188   2.256532 H        1 UNL1     0.0365
     63 H         -6.259681   -0.977614   3.436761 H        1 UNL1     0.0576
     64 H         -5.56053   -1.267658   6.424041 H        1 UNL1     0.0615
     65 H         -8.109913   -0.263028   4.924299 H        1 UNL1     0.0622
     66 H         -3.434438   1.260719   -3.695641 H        1 UNL1     0.0645
     67 H         -1.733093   2.046459   -2.701536 H        1 UNL1     0.0362
     68 H         -0.489795   0.374409   -3.390326 H        1 UNL1     0.0741
     69 H         0.365971   -1.613337   -1.859665 H        1 UNL1     0.0359
     70 H         -0.999523   -2.895408   -0.638505 H        1 UNL1     0.0600
     71 H         -0.480163   -1.996342   1.265873 H        1 UNL1     0.0348
     72 H         -2.898633   -1.996919   1.554048 H        1 UNL1     0.0602
     73 H         -4.669516   1.452038   -1.655315 H        1 UNL1     0.0628
     74 H         -5.252769   -1.500298   -2.291045 H        1 UNL1     0.1022
     75 H         -8.224302   -0.409886   9.014923 H        1 UNL1     0.0279
     76 H         -7.693836   1.216425   8.850546 H        1 UNL1     0.0279
     77 H         -9.447161   0.771688   8.792591 H        1 UNL1     0.0279
     78 H         -8.553084   2.803398   6.907575 H        1 UNL1     0.1553
     79 H         -6.63721   2.506639   6.498203 H        1 UNL1     0.1484
     80 H         -4.057842   3.674786   3.964079 H        1 UNL1     0.0317
     81 H         -5.714854   4.261435   3.97306 H        1 UNL1     0.0317
     82 H         -5.7325   4.346864   6.480268 H        1 UNL1     0.0428
     83 H         -4.448281   5.306981   5.779796 H        1 UNL1     0.0428
     84 H         -3.360848   1.47661   7.279425 H        1 UNL1     0.0428
     85 H         -5.019753   1.929331   7.458872 H        1 UNL1     0.0428
     86 H         -4.459608   0.418724   5.553837 H        1 UNL1     0.0317
     87 H         -3.409544   1.551339   4.83488 H        1 UNL1     0.0317
     88 H         -4.188342   4.504939   8.408361 H        1 UNL1     0.0429
     89 H         -2.787632   3.434131   8.495624 H        1 UNL1     0.0429
     90 H         -3.014646   6.261227   7.582755 H        1 UNL1     0.0308
     91 H         -1.493157   5.684006   9.42481 H        1 UNL1     0.0233
     92 H         -0.656042   4.483699   8.407955 H        1 UNL1     0.0233
     93 H         -0.49063   6.193698   8.071585 H        1 UNL1     0.0233
     94 H         -1.364686   6.096066   5.76504 H        1 UNL1     0.0233
     95 H         -1.489292   4.331105   5.826007 H        1 UNL1     0.0233
     96 H         -2.902394   5.305867   5.360204 H        1 UNL1     0.0233
     97 H         -10.785745   2.330569   -1.640002 H        1 UNL1     0.0280
     98 H         -11.538912   0.822724   -1.196911 H        1 UNL1     0.0280
     99 H         -12.170956   2.358826   -0.533105 H        1 UNL1     0.0280
     100 H         -12.243917   2.296045   2.759473 H        1 UNL1     0.2922
     101 H         -4.388972   -3.65466   2.096699 H        1 UNL1     0.0236
     102 H         -4.532125   -3.809476   3.891581 H        1 UNL1     0.0236
     103 H         -2.98377   -3.682236   3.115755 H        1 UNL1     0.0236
     104 H         -0.704824   -1.927733   2.85959 H        1 UNL1     0.2098
     105 H         -1.24178   0.868408   0.845363 H        1 UNL1     0.0234
     106 H         0.162955   0.142071   1.676175 H        1 UNL1     0.0234
     107 H         0.0   0.0   0.0 H        1 UNL1     0.0234
     108 H         -2.879068   -3.021105   -1.345166 H        1 UNL1     0.2098
     109 H         -3.066866   2.647092   -0.91883 H        1 UNL1     0.0234
     110 H         -2.793559   1.100975   -0.054176 H        1 UNL1     0.0234
     111 H         -1.497235   2.224856   -0.266963 H        1 UNL1     0.0234
     112 H         2.493241   0.790967   0.703113 H        1 UNL1     0.0342
     113 H         0.71901   1.069408   0.589915 H        1 UNL1     0.0342
     114 H         1.368602   -0.572412   0.569248 H        1 UNL1     0.0342
     115 H         -0.325382   -2.978587   -3.459177 H        1 UNL1     0.0234
     116 H         -1.909977   -2.223604   -3.658788 H        1 UNL1     0.0234
     117 H         -0.415188   -1.487999   -4.273715 H        1 UNL1     0.0234
     118 H         -6.189439   2.18706   -2.360386 H        1 UNL1     0.0309
     119 H         -7.555415   2.947154   -1.48607 H        1 UNL1     0.0309
     120 H         -5.993459   2.718983   -0.730828 H        1 UNL1     0.0309
     121 H         -3.962058   -1.068855   -5.263618 H        1 UNL1     0.0524
     122 H         -2.793418   0.257754   -5.29891 H        1 UNL1     0.0524
     123 H         -2.214223   -1.424648   -5.210581 H        1 UNL1     0.0524
@<TRIPOS>BOND
     1     1     2    1
     2     1    42    1
     3     2     3    2
     4     3     4    1
     5     4     5    2
     6     5     7    1
     7     6    75    1
     8     6    76    1
     9     6    77    1
    10     7     9   am
    11     9    10    1
    12    10    11    2
    13    10    43    1
    14    11    14    1
    15    11    15    1
    16    12    13   ar
    17    12    27   ar
    18    12    43    1
    19    13    14    1
    20    13    30   ar
    21    14    17    2
    22    15    16    1
    23    16    17    1
    24    16    18    1
    25    16    22    1
    26    18    19    1
    27    19    20    1
    28    20    21    1
    29    21    22    1
    30    23    24    1
    31    23    88    1
    32    23    89    1
    33    24    25    1
    34    24    26    1
    35    24    90    1
    36    25    91    1
    37    25    92    1
    38    25    93    1
    39    26    94    1
    40    26    95    1
    41    26    96    1
    42    27    28   ar
    43    28    29   ar
    44    29    30   ar
    45    29    31    1
    46    30    33    1
    47    31    32    1
    48    32    33    1
    49    32    35    1
    50    34    97    1
    51    34    98    1
    52    34    99    1
    53    35    61    1
    54    36    37    1
    55    36    60    1
    56    37    38    1
    57    38    39    1
    58    39    40    1
    59    40    41    1
    60    41    42    1
    61    45   100    1
    62    47   101    1
    63    47   102    1
    64    47   103    1
    65    48   104    1
    66    49   105    1
    67    49   106    1
    68    49   107    1
    69    50   108    1
    70    51    59    1
    71    52   109    1
    72    52   110    1
    73    52   111    1
    74    53    54    1
    75    54    55    2
    76    54    56    1
    77    56   112    1
    78    56   113    1
    79    56   114    1
    80    57   115    1
    81    57   116    1
    82    57   117    1
    83    58   118    1
    84    58   119    1
    85    58   120    1
    86    59   121    1
    87    59   122    1
    88    59   123    1
    89    60    61    2
    90     1    47    1
    91     1    62    1
    92     2    63    1
    93     3    64    1
    94     4    65    1
    95     5     6    1
    96     7     8    2
    97     9    78    1
    98    15    79    1
    99    18    80    1
   100    18    81    1
   101    19    82    1
   102    19    83    1
   103    20    23    1
   104    21    84    1
   105    21    85    1
   106    22    86    1
   107    22    87    1
   108    27    45    1
   109    28    34    1
   110    32    58    1
   111    33    46    2
   112    36    51    1
   113    36    66    1
   114    37    52    1
   115    37    67    1
   116    38    53    1
   117    38    68    1
   118    42    48    1
   119    42    72    1
   120    43    44    2
   121    60    73    1
   122    61    74    1
   123    39    69    1
   124    39    57    1
   125    40    70    1
   126    40    50    1
   127    41    71    1
   128    41    49    1
