@<TRIPOS>MOLECULE
*****
 123 128 0 0 0
SMALL
GASTEIGER

@<TRIPOS>ATOM
     1 C         -4.539066   -1.702277   -1.100794 C.3        1 UNL1     0.0009
     2 C         -5.430007   -2.195987   -2.64983 C.2        1 UNL1     -0.0787
     3 C         -6.499649   -1.990095   -3.603518 C.2        1 UNL1     -0.0649
     4 C         -6.76085   -2.802658   -5.065665 C.2        1 UNL1     -0.0542
     5 C         -7.406862   -2.747462   -6.325308 C.2        1 UNL1     0.0115
     6 C         -8.454509   -1.968343   -7.16717 C.3        1 UNL1     -0.0348
     7 C         -6.90043   -3.715863   -7.501197 C.2        1 UNL1     0.2441
     8 O         -7.489608   -4.739305   -7.82051 O.2        1 UNL1     -0.2702
     9 N         -5.885239   -3.1778   -8.311152 N.am        1 UNL1     -0.2772
     10 C         -4.647783   -3.451051   -7.775095 C.2        1 UNL1     0.1049
     11 C         -4.232   -2.634006   -6.824419 C.2        1 UNL1     0.0801
     12 C         -3.257265   -5.308446   -6.840281 C.ar        1 UNL1     0.0753
     13 C         -3.004522   -4.45135   -5.722195 C.ar        1 UNL1     0.0305
     14 C         -3.377058   -3.038588   -5.741477 C.2        1 UNL1     0.0924
     15 N         -4.723839   -1.447216   -6.429258 N.pl3        1 UNL1     -0.3170
     16 C         -3.805024   -0.886761   -5.474312 C.3        1 UNL1     0.1275
     17 N         -3.134641   -2.084596   -4.847015 N.2        1 UNL1     -0.2557
     18 C         -2.720519   -0.159458   -6.263351 C.3        1 UNL1     0.0016
     19 C         -3.383459   0.863639   -7.171851 C.3        1 UNL1     0.0026
     20 N         -4.14667   1.793348   -6.350767 N.3        1 UNL1     -0.3018
     21 C         -5.174596   1.179058   -5.507924 C.3        1 UNL1     0.0026
     22 C         -4.485918   0.158297   -4.600364 C.3        1 UNL1     0.0016
     23 C         -4.568904   2.973228   -7.078945 C.3        1 UNL1     0.0012
     24 C         -5.064057   4.056804   -6.10815 C.3        1 UNL1     -0.0339
     25 C         -4.977807   5.457212   -6.737018 C.3        1 UNL1     -0.0615
     26 C         -6.475354   3.737161   -5.646793 C.3        1 UNL1     -0.0615
     27 C         -2.792201   -6.621198   -6.863014 C.ar        1 UNL1     0.1347
     28 C         -2.032385   -7.174036   -5.847584 C.ar        1 UNL1     0.0342
     29 C         -1.837683   -6.327445   -4.735587 C.ar        1 UNL1     0.1435
     30 C         -2.328379   -5.022188   -4.683211 C.ar        1 UNL1     0.0774
     31 O         -1.027235   -6.680815   -3.714161 O.3        1 UNL1     -0.4436
     32 C         -0.712188   -5.444162   -3.056659 C.3        1 UNL1     0.3143
     33 C         -1.841194   -4.502053   -3.422704 C.2        1 UNL1     0.2504
     34 C         -1.291047   -8.480307   -5.912202 C.3        1 UNL1     -0.0327
     35 O         -0.803642   -5.676562   -1.645674 O.2        1 UNL1     -0.4528
     36 C         1.681186   -3.300799   -0.036493 C.3        1 UNL1     0.0854
     37 C         1.768451   -1.729494   -0.140938 C.3        1 UNL1     0.0236
     38 C         1.758446   -0.957138   1.264449 C.3        1 UNL1     0.1131
     39 C         0.636386   -1.282216   2.331021 C.3        1 UNL1     0.0200
     40 C         -0.953974   -1.454826   1.858369 C.3        1 UNL1     0.0661
     41 C         -1.823521   -0.373513   0.88253 C.3        1 UNL1     0.0091
     42 C         -3.165815   -0.680097   -0.329763 C.3        1 UNL1     0.0661
     43 C         -3.954151   -4.725537   -8.013663 C.2        1 UNL1     0.2131
     44 O         -3.886739   -5.191753   -9.136532 O.2        1 UNL1     -0.2851
     45 O         -3.120593   -7.402857   -7.96873 O.3        1 UNL1     -0.5056
     46 O         -2.259078   -3.549879   -2.802549 O.2        1 UNL1     -0.2836
     47 C         -5.355032   -2.127664   0.149497 C.3        1 UNL1     -0.0566
     48 O         -4.037493   0.401072   0.190206 O.3        1 UNL1     -0.3909
     49 C         -0.852197   0.586119   0.232045 C.3        1 UNL1     -0.0577
     50 O         -1.216393   -2.784814   1.458381 O.3        1 UNL1     -0.3910
     51 O         1.43133   -3.819748   1.250245 O.3        1 UNL1     -0.3753
     52 C         1.005892   -1.186389   -1.393331 C.3        1 UNL1     -0.0564
     53 O         2.19009   0.476764   1.164789 O.3        1 UNL1     -0.4608
     54 C         1.565537   1.538684   1.764947 C.2        1 UNL1     0.3042
     55 O         2.094637   2.484003   2.348269 O.2        1 UNL1     -0.2512
     56 C         0.071036   1.521278   1.613697 C.3        1 UNL1     0.0332
     57 C         1.234188   -2.364898   3.345222 C.3        1 UNL1     -0.0567
     58 C         0.596358   -4.928103   -3.699247 C.3        1 UNL1     0.0210
     59 C         0.244205   -4.603644   1.360279 C.3        1 UNL1     0.0372
     60 C         0.698648   -3.938462   -0.954732 C.2        1 UNL1     -0.0208
     61 C         -0.201071   -4.896473   -0.727874 C.2        1 UNL1     0.0882
     62 H         -3.812027   -2.501948   -1.286944 H        1 UNL1     0.0365
     63 H         -4.879147   -3.098531   -2.922661 H        1 UNL1     0.0576
     64 H         -7.175029   -1.13475   -3.530337 H        1 UNL1     0.0615
     65 H         -6.101887   -3.672798   -5.001575 H        1 UNL1     0.0622
     66 H         2.670089   -3.654323   -0.360743 H        1 UNL1     0.0645
     67 H         2.799283   -1.540707   -0.487789 H        1 UNL1     0.0362
     68 H         2.692811   -1.347718   1.695647 H        1 UNL1     0.0741
     69 H         0.5855   -0.468178   3.041768 H        1 UNL1     0.0359
     70 H         -1.456275   -1.356923   2.839781 H        1 UNL1     0.0600
     71 H         -2.275237   0.27035   1.662498 H        1 UNL1     0.0348
     72 H         -3.131214   -1.569688   0.315795 H        1 UNL1     0.0602
     73 H         0.878651   -3.603523   -1.946026 H        1 UNL1     0.0628
     74 H         -0.485347   -5.253421   0.262587 H        1 UNL1     0.1022
     75 H         -8.259328   -0.869973   -7.116939 H        1 UNL1     0.0279
     76 H         -8.453947   -2.157628   -8.238263 H        1 UNL1     0.0279
     77 H         -9.468462   -2.027877   -6.745205 H        1 UNL1     0.0279
     78 H         -5.983254   -2.165611   -8.35524 H        1 UNL1     0.1553
     79 H         -5.336523   -0.883749   -6.989665 H        1 UNL1     0.1484
     80 H         -2.027008   0.318463   -5.560927 H        1 UNL1     0.0317
     81 H         -2.128966   -0.864698   -6.856944 H        1 UNL1     0.0317
     82 H         -4.024274   0.383666   -7.926102 H        1 UNL1     0.0428
     83 H         -2.592397   1.369341   -7.726412 H        1 UNL1     0.0428
     84 H         -5.678179   1.887958   -4.843337 H        1 UNL1     0.0428
     85 H         -5.989801   0.748497   -6.105733 H        1 UNL1     0.0428
     86 H         -5.240758   -0.172059   -3.911112 H        1 UNL1     0.0317
     87 H         -3.756311   0.662705   -3.955117 H        1 UNL1     0.0317
     88 H         -3.701952   3.364758   -7.627027 H        1 UNL1     0.0429
     89 H         -5.336707   2.728392   -7.824135 H        1 UNL1     0.0429
     90 H         -4.442798   4.040812   -5.204826 H        1 UNL1     0.0308
     91 H         -3.941619   5.8035   -6.796189 H        1 UNL1     0.0233
     92 H         -5.414093   5.458412   -7.738648 H        1 UNL1     0.0233
     93 H         -5.531885   6.208419   -6.16124 H        1 UNL1     0.0233
     94 H         -7.202873   4.083968   -6.388599 H        1 UNL1     0.0233
     95 H         -6.596307   2.655945   -5.535864 H        1 UNL1     0.0233
     96 H         -6.70102   4.217539   -4.690613 H        1 UNL1     0.0233
     97 H         -0.250311   -8.372983   -5.621377 H        1 UNL1     0.0280
     98 H         -1.716604   -9.231629   -5.23421 H        1 UNL1     0.0280
     99 H         -1.323433   -8.872477   -6.941886 H        1 UNL1     0.0280
     100 H         -3.976819   -7.239378   -8.323376 H        1 UNL1     0.2922
     101 H         -4.899619   -3.007286   0.603942 H        1 UNL1     0.0236
     102 H         -6.41365   -2.277313   -0.060069 H        1 UNL1     0.0236
     103 H         -5.330997   -1.359753   0.940653 H        1 UNL1     0.0236
     104 H         -3.630252   1.253761   -0.058886 H        1 UNL1     0.2098
     105 H         -1.211655   1.031172   -0.692362 H        1 UNL1     0.0234
     106 H         -0.460799   1.357292   0.895391 H        1 UNL1     0.0234
     107 H         0.0   0.0   0.0 H        1 UNL1     0.0234
     108 H         -1.496396   -2.756608   0.523196 H        1 UNL1     0.2098
     109 H         1.24673   -1.751674   -2.304463 H        1 UNL1     0.0234
     110 H         -0.080478   -1.157288   -1.256596 H        1 UNL1     0.0234
     111 H         1.274886   -0.144052   -1.610407 H        1 UNL1     0.0234
     112 H         -0.362832   2.398318   2.103498 H        1 UNL1     0.0342
     113 H         -0.23434   1.465673   0.569907 H        1 UNL1     0.0342
     114 H         -0.31481   0.626623   2.121516 H        1 UNL1     0.0342
     115 H         1.041088   -3.39212   3.006524 H        1 UNL1     0.0234
     116 H         2.309039   -2.270804   3.512229 H        1 UNL1     0.0234
     117 H         0.73554   -2.367854   4.329744 H        1 UNL1     0.0234
     118 H         0.997599   -5.634311   -4.447098 H        1 UNL1     0.0309
     119 H         0.488466   -3.941205   -4.160327 H        1 UNL1     0.0309
     120 H         1.412886   -4.83664   -2.974663 H        1 UNL1     0.0309
     121 H         0.365064   -5.266572   2.216594 H        1 UNL1     0.0524
     122 H         -0.6502   -3.985024   1.542999 H        1 UNL1     0.0524
     123 H         0.092167   -5.184583   0.455023 H        1 UNL1     0.0524
@<TRIPOS>BOND
     1     1     2    1
     2     1    42    1
     3     2     3    2
     4     3     4    1
     5     4     5    2
     6     5     7    1
     7     6    75    1
     8     6    76    1
     9     6    77    1
    10     7     9   am
    11     9    10    1
    12    10    11    2
    13    10    43    1
    14    11    14    1
    15    11    15    1
    16    12    13   ar
    17    12    27   ar
    18    12    43    1
    19    13    14    1
    20    13    30   ar
    21    14    17    2
    22    15    16    1
    23    16    17    1
    24    16    18    1
    25    16    22    1
    26    18    19    1
    27    19    20    1
    28    20    21    1
    29    21    22    1
    30    23    24    1
    31    23    88    1
    32    23    89    1
    33    24    25    1
    34    24    26    1
    35    24    90    1
    36    25    91    1
    37    25    92    1
    38    25    93    1
    39    26    94    1
    40    26    95    1
    41    26    96    1
    42    27    28   ar
    43    28    29   ar
    44    29    30   ar
    45    29    31    1
    46    30    33    1
    47    31    32    1
    48    32    33    1
    49    32    35    1
    50    34    97    1
    51    34    98    1
    52    34    99    1
    53    35    61    1
    54    36    37    1
    55    36    60    1
    56    37    38    1
    57    38    39    1
    58    39    40    1
    59    40    41    1
    60    41    42    1
    61    45   100    1
    62    47   101    1
    63    47   102    1
    64    47   103    1
    65    48   104    1
    66    49   105    1
    67    49   106    1
    68    49   107    1
    69    50   108    1
    70    51    59    1
    71    52   109    1
    72    52   110    1
    73    52   111    1
    74    53    54    1
    75    54    55    2
    76    54    56    1
    77    56   112    1
    78    56   113    1
    79    56   114    1
    80    57   115    1
    81    57   116    1
    82    57   117    1
    83    58   118    1
    84    58   119    1
    85    58   120    1
    86    59   121    1
    87    59   122    1
    88    59   123    1
    89    60    61    2
    90     1    47    1
    91     1    62    1
    92     2    63    1
    93     3    64    1
    94     4    65    1
    95     5     6    1
    96     7     8    2
    97     9    78    1
    98    15    79    1
    99    18    80    1
   100    18    81    1
   101    19    82    1
   102    19    83    1
   103    20    23    1
   104    21    84    1
   105    21    85    1
   106    22    86    1
   107    22    87    1
   108    27    45    1
   109    28    34    1
   110    32    58    1
   111    33    46    2
   112    36    51    1
   113    36    66    1
   114    37    52    1
   115    37    67    1
   116    38    53    1
   117    38    68    1
   118    42    48    1
   119    42    72    1
   120    43    44    2
   121    60    73    1
   122    61    74    1
   123    39    69    1
   124    39    57    1
   125    40    70    1
   126    40    50    1
   127    41    71    1
   128    41    49    1
