@<TRIPOS>MOLECULE
*****
 123 128 0 0 0
SMALL
GASTEIGER

@<TRIPOS>ATOM
     1 C         4.907827   2.402672   0.390077 C.3        1 UNL1     0.0009
     2 C         6.297016   3.212788   -0.532366 C.2        1 UNL1     -0.0787
     3 C         7.624333   3.155998   -1.107736 C.2        1 UNL1     -0.0649
     4 C         8.403386   4.331227   -2.044898 C.2        1 UNL1     -0.0542
     5 C         9.444912   4.572033   -2.974583 C.2        1 UNL1     0.0115
     6 C         10.694427   3.945064   -3.652036 C.3        1 UNL1     -0.0348
     7 C         9.410092   5.917963   -3.848796 C.2        1 UNL1     0.2441
     8 O         10.105906   6.892412   -3.598158 O.2        1 UNL1     -0.2702
     9 N         8.72318   5.809168   -5.070461 N.am        1 UNL1     -0.2772
     10 C         7.385953   6.082141   -4.895442 C.2        1 UNL1     0.1049
     11 C         6.639719   5.082442   -4.461899 C.2        1 UNL1     0.0801
     12 C         5.817274   7.744576   -3.879132 C.ar        1 UNL1     0.0753
     13 C         5.164339   6.631959   -3.259156 C.ar        1 UNL1     0.0305
     14 C         5.475004   5.254992   -3.636647 C.2        1 UNL1     0.0924
     15 N         6.925313   3.773189   -4.357887 N.pl3        1 UNL1     -0.3170
     16 C         5.714412   3.086934   -3.993158 C.3        1 UNL1     0.1275
     17 N         4.906395   4.118468   -3.244313 N.2        1 UNL1     -0.2557
     18 C         4.94923   2.803885   -5.282375 C.3        1 UNL1     0.0016
     19 C         5.853618   2.02416   -6.223492 C.3        1 UNL1     0.0026
     20 N         6.253646   0.786135   -5.569047 N.3        1 UNL1     -0.3018
     21 C         6.943494   0.954644   -4.28839 C.3        1 UNL1     0.0026
     22 C         6.015239   1.73622   -3.357059 C.3        1 UNL1     0.0016
     23 C         6.864775   -0.161271   -6.479863 C.3        1 UNL1     0.0012
     24 C         5.815955   -0.731301   -7.447747 C.3        1 UNL1     -0.0339
     25 C         6.062973   -0.255229   -8.888717 C.3        1 UNL1     -0.0615
     26 C         5.792224   -2.24716   -7.356164 C.3        1 UNL1     -0.0615
     27 C         5.431316   9.053926   -3.602076 C.ar        1 UNL1     0.1347
     28 C         4.383948   9.372738   -2.756245 C.ar        1 UNL1     0.0342
     29 C         3.787855   8.263392   -2.119701 C.ar        1 UNL1     0.1435
     30 C         4.187766   6.948239   -2.359831 C.ar        1 UNL1     0.0774
     31 O         2.684585   8.400189   -1.35218 O.3        1 UNL1     -0.4436
     32 C         2.121267   7.08129   -1.288531 C.3        1 UNL1     0.3143
     33 C         3.276393   6.14296   -1.573897 C.2        1 UNL1     0.2504
     34 C         3.753455   10.729216   -2.606095 C.3        1 UNL1     -0.0327
     35 O         1.723849   6.852895   0.069095 O.2        1 UNL1     -0.4528
     36 C         -1.239972   4.48733   -0.098111 C.3        1 UNL1     0.0854
     37 C         -1.335634   3.054607   -0.75055 C.3        1 UNL1     0.0236
     38 C         -1.839528   1.895015   0.23595 C.3        1 UNL1     0.1131
     39 C         -1.14849   1.709068   1.64668 C.3        1 UNL1     0.0200
     40 C         0.511635   1.784327   1.790761 C.3        1 UNL1     0.0661
     41 C         1.631181   0.940375   0.835788 C.3        1 UNL1     0.0091
     42 C         3.320273   1.405128   0.291385 C.3        1 UNL1     0.0661
     43 C         6.859624   7.455215   -4.895023 C.2        1 UNL1     0.2131
     44 O         7.201724   8.248503   -5.753159 O.2        1 UNL1     -0.2851
     45 O         6.148429   10.080755   -4.212658 O.3        1 UNL1     -0.5056
     46 O         3.42196   4.995991   -1.214556 O.2        1 UNL1     -0.2836
     47 C         5.251364   2.299305   1.900468 C.3        1 UNL1     -0.0566
     48 O         3.921789   0.101362   0.662181 O.3        1 UNL1     -0.3909
     49 C         0.916465   0.37975   -0.373499 C.3        1 UNL1     -0.0577
     50 O         0.939091   3.119551   1.970154 O.3        1 UNL1     -0.3910
     51 O         -1.436604   4.543432   1.296743 O.3        1 UNL1     -0.3753
     52 C         -0.203002   2.817361   -1.802124 C.3        1 UNL1     -0.0564
     53 O         -2.255173   0.640327   -0.474911 O.3        1 UNL1     -0.4608
     54 C         -2.357226   -0.600879   0.096861 C.2        1 UNL1     0.3042
     55 O         -1.457828   -1.424626   0.259222 O.2        1 UNL1     -0.2512
     56 C         -3.732485   -0.91345   0.614236 C.3        1 UNL1     0.0332
     57 C         -2.026684   2.502828   2.72227 C.3        1 UNL1     -0.0567
     58 C         1.101974   6.984604   -2.447505 C.3        1 UNL1     0.0210
     59 C         -2.67553   5.121846   1.704624 C.3        1 UNL1     0.0372
     60 C         0.020348   5.2256   -0.383964 C.2        1 UNL1     -0.0208
     61 C         0.815191   5.925333   0.426803 C.2        1 UNL1     0.0882
     62 H         4.316799   3.318029   0.265503 H        1 UNL1     0.0365
     63 H         5.904504   4.225785   -0.643012 H        1 UNL1     0.0576
     64 H         8.204447   2.230547   -1.118475 H        1 UNL1     0.0615
     65 H         7.791405   5.226012   -1.902341 H        1 UNL1     0.0622
     66 H         -2.042627   5.063842   -0.579179 H        1 UNL1     0.0645
     67 H         -2.187047   3.13423   -1.44863 H        1 UNL1     0.0362
     68 H         -2.852531   2.266269   0.453934 H        1 UNL1     0.0741
     69 H         -1.373911   0.717761   2.016686 H        1 UNL1     0.0359
     70 H         0.638004   1.317326   2.786251 H        1 UNL1     0.0600
     71 H         1.762741   0.029274   1.451859 H        1 UNL1     0.0348
     72 H         3.091835   2.048332   1.153603 H        1 UNL1     0.0602
     73 H         0.185603   5.241543   -1.432623 H        1 UNL1     0.0628
     74 H         0.74864   5.915111   1.515244 H        1 UNL1     0.1022
     75 H         10.809717   2.876379   -3.349291 H        1 UNL1     0.0279
     76 H         10.67653   3.880377   -4.737653 H        1 UNL1     0.0279
     77 H         11.637785   4.376824   -3.286851 H        1 UNL1     0.0279
     78 H         8.798018   4.856595   -5.421292 H        1 UNL1     0.1553
     79 H         7.676275   3.326051   -4.850896 H        1 UNL1     0.1484
     80 H         4.039884   2.239928   -5.041939 H        1 UNL1     0.0317
     81 H         4.623798   3.735856   -5.7569 H        1 UNL1     0.0317
     82 H         6.731667   2.61367   -6.525853 H        1 UNL1     0.0428
     83 H         5.288975   1.83458   -7.136885 H        1 UNL1     0.0428
     84 H         7.161693   0.010265   -3.780111 H        1 UNL1     0.0428
     85 H         7.928993   1.424145   -4.413607 H        1 UNL1     0.0428
     86 H         6.493512   1.724818   -2.395231 H        1 UNL1     0.0317
     87 H         5.091101   1.170198   -3.187691 H        1 UNL1     0.0317
     88 H         7.627404   0.369972   -7.064219 H        1 UNL1     0.0429
     89 H         7.378362   -0.96384   -5.93499 H        1 UNL1     0.0429
     90 H         4.819596   -0.39673   -7.135426 H        1 UNL1     0.0308
     91 H         7.117839   -0.349533   -9.163428 H        1 UNL1     0.0233
     92 H         5.456113   -0.827756   -9.594084 H        1 UNL1     0.0233
     93 H         5.789331   0.796889   -9.033639 H        1 UNL1     0.0233
     94 H         5.36407   -2.674075   -8.269545 H        1 UNL1     0.0233
     95 H         6.810701   -2.631046   -7.249871 H        1 UNL1     0.0233
     96 H         5.196484   -2.586173   -6.50403 H        1 UNL1     0.0233
     97 H         2.691948   10.71268   -2.834481 H        1 UNL1     0.0280
     98 H         3.834227   11.111851   -1.580268 H        1 UNL1     0.0280
     99 H         4.243057   11.441515   -3.290212 H        1 UNL1     0.0280
     100 H         7.083322   10.004104   -4.137015 H        1 UNL1     0.2922
     101 H         4.336538   2.164797   2.477232 H        1 UNL1     0.0236
     102 H         5.844184   3.138158   2.263612 H        1 UNL1     0.0236
     103 H         5.858704   1.407089   2.126922 H        1 UNL1     0.0236
     104 H         4.213352   0.165041   1.592722 H        1 UNL1     0.2098
     105 H         0.684287   1.115723   -1.139167 H        1 UNL1     0.0234
     106 H         1.3931   -0.492687   -0.820265 H        1 UNL1     0.0234
     107 H         0.0   -0.0   0.0 H        1 UNL1     0.0234
     108 H         0.771566   3.592815   1.132464 H        1 UNL1     0.2098
     109 H         -0.249287   3.535651   -2.632563 H        1 UNL1     0.0234
     110 H         0.800645   2.82844   -1.363588 H        1 UNL1     0.0234
     111 H         -0.280878   1.823961   -2.263684 H        1 UNL1     0.0234
     112 H         -4.011579   -1.934306   0.336199 H        1 UNL1     0.0342
     113 H         -3.808129   -0.767156   1.690675 H        1 UNL1     0.0342
     114 H         -4.443785   -0.227277   0.134254 H        1 UNL1     0.0342
     115 H         -3.086163   2.215406   2.676646 H        1 UNL1     0.0234
     116 H         -1.694032   2.368153   3.753412 H        1 UNL1     0.0234
     117 H         -2.091162   3.586563   2.524017 H        1 UNL1     0.0234
     118 H         0.060821   6.947518   -2.08195 H        1 UNL1     0.0309
     119 H         1.198007   7.798514   -3.17313 H        1 UNL1     0.0309
     120 H         1.202226   6.055414   -3.019048 H        1 UNL1     0.0309
     121 H         -2.535694   5.528669   2.705772 H        1 UNL1     0.0524
     122 H         -2.985338   5.952626   1.048987 H        1 UNL1     0.0524
     123 H         -3.457784   4.368112   1.7122 H        1 UNL1     0.0524
@<TRIPOS>BOND
     1     1     2    1
     2     1    42    1
     3     2     3    2
     4     3     4    1
     5     4     5    2
     6     5     7    1
     7     6    75    1
     8     6    76    1
     9     6    77    1
    10     7     9   am
    11     9    10    1
    12    10    11    2
    13    10    43    1
    14    11    14    1
    15    11    15    1
    16    12    13   ar
    17    12    27   ar
    18    12    43    1
    19    13    14    1
    20    13    30   ar
    21    14    17    2
    22    15    16    1
    23    16    17    1
    24    16    18    1
    25    16    22    1
    26    18    19    1
    27    19    20    1
    28    20    21    1
    29    21    22    1
    30    23    24    1
    31    23    88    1
    32    23    89    1
    33    24    25    1
    34    24    26    1
    35    24    90    1
    36    25    91    1
    37    25    92    1
    38    25    93    1
    39    26    94    1
    40    26    95    1
    41    26    96    1
    42    27    28   ar
    43    28    29   ar
    44    29    30   ar
    45    29    31    1
    46    30    33    1
    47    31    32    1
    48    32    33    1
    49    32    35    1
    50    34    97    1
    51    34    98    1
    52    34    99    1
    53    35    61    1
    54    36    37    1
    55    36    60    1
    56    37    38    1
    57    38    39    1
    58    39    40    1
    59    40    41    1
    60    41    42    1
    61    45   100    1
    62    47   101    1
    63    47   102    1
    64    47   103    1
    65    48   104    1
    66    49   105    1
    67    49   106    1
    68    49   107    1
    69    50   108    1
    70    51    59    1
    71    52   109    1
    72    52   110    1
    73    52   111    1
    74    53    54    1
    75    54    55    2
    76    54    56    1
    77    56   112    1
    78    56   113    1
    79    56   114    1
    80    57   115    1
    81    57   116    1
    82    57   117    1
    83    58   118    1
    84    58   119    1
    85    58   120    1
    86    59   121    1
    87    59   122    1
    88    59   123    1
    89    60    61    2
    90     1    47    1
    91     1    62    1
    92     2    63    1
    93     3    64    1
    94     4    65    1
    95     5     6    1
    96     7     8    2
    97     9    78    1
    98    15    79    1
    99    18    80    1
   100    18    81    1
   101    19    82    1
   102    19    83    1
   103    20    23    1
   104    21    84    1
   105    21    85    1
   106    22    86    1
   107    22    87    1
   108    27    45    1
   109    28    34    1
   110    32    58    1
   111    33    46    2
   112    36    51    1
   113    36    66    1
   114    37    52    1
   115    37    67    1
   116    38    53    1
   117    38    68    1
   118    42    48    1
   119    42    72    1
   120    43    44    2
   121    60    73    1
   122    61    74    1
   123    39    69    1
   124    39    57    1
   125    40    70    1
   126    40    50    1
   127    41    71    1
   128    41    49    1
