@<TRIPOS>MOLECULE
*****
 123 128 0 0 0
SMALL
GASTEIGER

@<TRIPOS>ATOM
     1 C         3.610504   -4.11767   0.144266 C.3        1 UNL1     0.0009
     2 C         3.892301   -5.922716   -0.171071 C.2        1 UNL1     -0.0787
     3 C         4.032477   -7.27693   0.321373 C.2        1 UNL1     -0.0649
     4 C         4.183351   -8.701756   -0.580549 C.2        1 UNL1     -0.0542
     5 C         4.049651   -10.111909   -0.554628 C.2        1 UNL1     0.0115
     6 C         3.824614   -11.335928   0.375135 C.3        1 UNL1     -0.0348
     7 C         3.950555   -10.908542   -1.944788 C.2        1 UNL1     0.2441
     8 O         4.891898   -11.521775   -2.428878 O.2        1 UNL1     -0.2702
     9 N         2.644284   -11.07324   -2.437416 N.am        1 UNL1     -0.2772
     10 C         2.285544   -9.997108   -3.216241 C.2        1 UNL1     0.1049
     11 C         1.838128   -8.935125   -2.57108 C.2        1 UNL1     0.0801
     12 C         3.080919   -8.562478   -5.104772 C.ar        1 UNL1     0.0753
     13 C         2.770608   -7.436854   -4.276953 C.ar        1 UNL1     0.0305
     14 C         2.016396   -7.585689   -3.034349 C.2        1 UNL1     0.0924
     15 N         1.473891   -8.795734   -1.284834 N.pl3        1 UNL1     -0.3170
     16 C         0.897852   -7.486278   -1.130704 C.3        1 UNL1     0.1275
     17 N         1.55855   -6.654283   -2.202611 N.2        1 UNL1     -0.2557
     18 C         -0.573112   -7.590468   -1.521998 C.3        1 UNL1     0.0016
     19 C         -1.227288   -8.668102   -0.672087 C.3        1 UNL1     0.0026
     20 N         -1.082754   -8.30858   0.731794 N.3        1 UNL1     -0.3018
     21 C         0.296659   -8.124964   1.187725 C.3        1 UNL1     0.0026
     22 C         0.933138   -7.035056   0.323498 C.3        1 UNL1     0.0016
     23 C         -1.921886   -9.10301   1.606655 C.3        1 UNL1     0.0012
     24 C         -1.780902   -8.63136   3.06248 C.3        1 UNL1     -0.0339
     25 C         -1.418063   -7.139123   3.137538 C.3        1 UNL1     -0.0615
     26 C         -3.052747   -8.936908   3.834382 C.3        1 UNL1     -0.0615
     27 C         3.693303   -8.399212   -6.345114 C.ar        1 UNL1     0.1347
     28 C         4.005634   -7.161873   -6.87943 C.ar        1 UNL1     0.0342
     29 C         3.735647   -6.071214   -6.025772 C.ar        1 UNL1     0.1435
     30 C         3.155622   -6.222155   -4.76561 C.ar        1 UNL1     0.0774
     31 O         3.881835   -4.795261   -6.444796 O.3        1 UNL1     -0.4436
     32 C         3.092495   -4.020354   -5.529737 C.3        1 UNL1     0.3143
     33 C         2.989916   -4.86869   -4.278331 C.2        1 UNL1     0.2504
     34 C         4.428514   -6.895003   -8.297194 C.3        1 UNL1     -0.0327
     35 O         3.857698   -2.858978   -5.184883 O.2        1 UNL1     -0.4528
     36 C         1.327978   -0.123057   -4.461459 C.3        1 UNL1     0.0854
     37 C         0.15047   -0.106952   -3.412299 C.3        1 UNL1     0.0236
     38 C         0.170873   1.130432   -2.392393 C.3        1 UNL1     0.1131
     39 C         1.495403   1.470888   -1.597421 C.3        1 UNL1     0.0200
     40 C         2.401818   0.253659   -0.905177 C.3        1 UNL1     0.0661
     41 C         1.807478   -0.984039   0.091053 C.3        1 UNL1     0.0091
     42 C         2.366942   -2.719152   0.295468 C.3        1 UNL1     0.0661
     43 C         2.647949   -9.903066   -4.638272 C.2        1 UNL1     0.2131
     44 O         2.491314   -10.855746   -5.380299 O.2        1 UNL1     -0.2851
     45 O         4.002609   -9.549375   -7.068227 O.3        1 UNL1     -0.5056
     46 O         2.829857   -4.507223   -3.133964 O.2        1 UNL1     -0.2836
     47 C         4.888753   -3.468234   0.739491 C.3        1 UNL1     -0.0566
     48 O         2.356096   -2.668057   1.77749 O.3        1 UNL1     -0.3909
     49 C         0.299344   -1.016699   -0.018309 C.3        1 UNL1     -0.0577
     50 O         3.323591   -0.276311   -1.836407 O.3        1 UNL1     -0.3910
     51 O         2.339179   0.839885   -4.267433 O.3        1 UNL1     -0.3753
     52 C         -0.245688   -1.550399   -2.960116 C.3        1 UNL1     -0.0564
     53 O         -1.120352   1.319076   -1.651126 O.3        1 UNL1     -0.4608
     54 C         -1.604601   0.489534   -0.673735 C.2        1 UNL1     0.3042
     55 O         -1.411134   0.571197   0.538593 O.2        1 UNL1     -0.2512
     56 C         -2.511515   -0.588673   -1.194975 C.3        1 UNL1     0.0332
     57 C         2.271585   2.604435   -2.416439 C.3        1 UNL1     -0.0567
     58 C         1.687361   -3.893508   -6.163013 C.3        1 UNL1     0.0210
     59 C         3.616948   0.30626   -3.923316 C.3        1 UNL1     0.0372
     60 C         2.010463   -1.436081   -4.620654 C.2        1 UNL1     -0.0208
     61 C         3.308892   -1.732514   -4.691044 C.2        1 UNL1     0.0882
     62 H         3.645472   -3.94279   -0.937818 H        1 UNL1     0.0365
     63 H         4.072081   -5.915587   -1.24815 H        1 UNL1     0.0576
     64 H         3.883601   -7.520946   1.375602 H        1 UNL1     0.0615
     65 H         4.405874   -8.34824   -1.590991 H        1 UNL1     0.0622
     66 H         0.841611   0.082563   -5.425416 H        1 UNL1     0.0645
     67 H         -0.744277   0.121784   -4.017003 H        1 UNL1     0.0362
     68 H         0.037351   1.958499   -3.105133 H        1 UNL1     0.0741
     69 H         1.241711   2.090279   -0.747477 H        1 UNL1     0.0359
     70 H         3.023002   0.850261   -0.210011 H        1 UNL1     0.0600
     71 H         1.942884   -0.514028   1.08489 H        1 UNL1     0.0348
     72 H         3.210488   -2.180172   -0.159775 H        1 UNL1     0.0602
     73 H         1.283791   -2.186791   -4.809413 H        1 UNL1     0.0628
     74 H         4.114102   -1.036029   -4.454859 H        1 UNL1     0.1022
     75 H         3.868938   -11.027135   1.447383 H        1 UNL1     0.0279
     76 H         2.853518   -11.821678   0.311195 H        1 UNL1     0.0279
     77 H         4.646847   -12.064726   0.325245 H        1 UNL1     0.0279
     78 H         1.988988   -11.120721   -1.659978 H        1 UNL1     0.1553
     79 H         1.241441   -9.566   -0.685175 H        1 UNL1     0.1484
     80 H         -1.0529   -6.615765   -1.371913 H        1 UNL1     0.0317
     81 H         -0.679071   -7.831598   -2.585144 H        1 UNL1     0.0317
     82 H         -0.798438   -9.660975   -0.872592 H        1 UNL1     0.0428
     83 H         -2.274968   -8.726987   -0.968649 H        1 UNL1     0.0428
     84 H         0.373993   -7.778061   2.222853 H        1 UNL1     0.0428
     85 H         0.858823   -9.069014   1.180018 H        1 UNL1     0.0428
     86 H         1.890194   -6.834805   0.768393 H        1 UNL1     0.0317
     87 H         0.390789   -6.090391   0.452191 H        1 UNL1     0.0317
     88 H         -2.96569   -8.967039   1.294758 H        1 UNL1     0.0429
     89 H         -1.695089   -10.17288   1.513294 H        1 UNL1     0.0429
     90 H         -0.987525   -9.20867   3.551846 H        1 UNL1     0.0308
     91 H         -0.428734   -6.948419   2.710968 H        1 UNL1     0.0233
     92 H         -2.15898   -6.53438   2.609393 H        1 UNL1     0.0233
     93 H         -1.397318   -6.765721   4.168545 H        1 UNL1     0.0233
     94 H         -2.837067   -9.004458   4.906182 H        1 UNL1     0.0233
     95 H         -3.781133   -8.134603   3.686993 H        1 UNL1     0.0233
     96 H         -3.498319   -9.881928   3.511318 H        1 UNL1     0.0233
     97 H         5.024421   -7.706443   -8.704245 H        1 UNL1     0.0280
     98 H         3.569259   -6.785484   -8.971688 H        1 UNL1     0.0280
     99 H         5.029713   -5.97186   -8.335432 H        1 UNL1     0.0280
     100 H         3.345481   -9.809798   -7.689504 H        1 UNL1     0.2922
     101 H         4.88847   -3.582166   1.823315 H        1 UNL1     0.0236
     102 H         5.022528   -2.430043   0.437422 H        1 UNL1     0.0236
     103 H         5.807074   -3.978884   0.404651 H        1 UNL1     0.0236
     104 H         1.586619   -3.186131   2.084857 H        1 UNL1     0.2098
     105 H         -0.074737   -1.457143   -0.939115 H        1 UNL1     0.0234
     106 H         -0.210331   -1.450159   0.842082 H        1 UNL1     0.0234
     107 H         -0.0   0.0   0.0 H        1 UNL1     0.0234
     108 H         3.66539   -1.111511   -1.463068 H        1 UNL1     0.2098
     109 H         -1.328515   -1.655044   -2.804399 H        1 UNL1     0.0234
     110 H         0.10229   -2.327859   -3.648745 H        1 UNL1     0.0234
     111 H         0.219511   -1.816204   -2.001532 H        1 UNL1     0.0234
     112 H         -2.71386   -0.423309   -2.257546 H        1 UNL1     0.0342
     113 H         -2.104016   -1.584136   -1.025146 H        1 UNL1     0.0342
     114 H         -3.466808   -0.523667   -0.656131 H        1 UNL1     0.0342
     115 H         2.282198   3.562267   -1.878263 H        1 UNL1     0.0234
     116 H         3.306302   2.35018   -2.654692 H        1 UNL1     0.0234
     117 H         1.767042   2.892742   -3.354659 H        1 UNL1     0.0234
     118 H         1.124354   -4.842107   -6.116244 H        1 UNL1     0.0309
     119 H         1.084688   -3.09689   -5.715366 H        1 UNL1     0.0309
     120 H         1.727918   -3.676523   -7.236036 H        1 UNL1     0.0309
     121 H         3.589259   -0.765864   -4.116033 H        1 UNL1     0.0524
     122 H         4.427642   0.73304   -4.537052 H        1 UNL1     0.0524
     123 H         3.832445   0.493243   -2.875131 H        1 UNL1     0.0524
@<TRIPOS>BOND
     1     1     2    1
     2     1    42    1
     3     2     3    2
     4     3     4    1
     5     4     5    2
     6     5     7    1
     7     6    75    1
     8     6    76    1
     9     6    77    1
    10     7     9   am
    11     9    10    1
    12    10    11    2
    13    10    43    1
    14    11    14    1
    15    11    15    1
    16    12    13   ar
    17    12    27   ar
    18    12    43    1
    19    13    14    1
    20    13    30   ar
    21    14    17    2
    22    15    16    1
    23    16    17    1
    24    16    18    1
    25    16    22    1
    26    18    19    1
    27    19    20    1
    28    20    21    1
    29    21    22    1
    30    23    24    1
    31    23    88    1
    32    23    89    1
    33    24    25    1
    34    24    26    1
    35    24    90    1
    36    25    91    1
    37    25    92    1
    38    25    93    1
    39    26    94    1
    40    26    95    1
    41    26    96    1
    42    27    28   ar
    43    28    29   ar
    44    29    30   ar
    45    29    31    1
    46    30    33    1
    47    31    32    1
    48    32    33    1
    49    32    35    1
    50    34    97    1
    51    34    98    1
    52    34    99    1
    53    35    61    1
    54    36    37    1
    55    36    60    1
    56    37    38    1
    57    38    39    1
    58    39    40    1
    59    40    41    1
    60    41    42    1
    61    45   100    1
    62    47   101    1
    63    47   102    1
    64    47   103    1
    65    48   104    1
    66    49   105    1
    67    49   106    1
    68    49   107    1
    69    50   108    1
    70    51    59    1
    71    52   109    1
    72    52   110    1
    73    52   111    1
    74    53    54    1
    75    54    55    2
    76    54    56    1
    77    56   112    1
    78    56   113    1
    79    56   114    1
    80    57   115    1
    81    57   116    1
    82    57   117    1
    83    58   118    1
    84    58   119    1
    85    58   120    1
    86    59   121    1
    87    59   122    1
    88    59   123    1
    89    60    61    2
    90     1    47    1
    91     1    62    1
    92     2    63    1
    93     3    64    1
    94     4    65    1
    95     5     6    1
    96     7     8    2
    97     9    78    1
    98    15    79    1
    99    18    80    1
   100    18    81    1
   101    19    82    1
   102    19    83    1
   103    20    23    1
   104    21    84    1
   105    21    85    1
   106    22    86    1
   107    22    87    1
   108    27    45    1
   109    28    34    1
   110    32    58    1
   111    33    46    2
   112    36    51    1
   113    36    66    1
   114    37    52    1
   115    37    67    1
   116    38    53    1
   117    38    68    1
   118    42    48    1
   119    42    72    1
   120    43    44    2
   121    60    73    1
   122    61    74    1
   123    39    69    1
   124    39    57    1
   125    40    70    1
   126    40    50    1
   127    41    71    1
   128    41    49    1
