@<TRIPOS>MOLECULE
*****
 123 128 0 0 0
SMALL
GASTEIGER

@<TRIPOS>ATOM
     1 C         -1.260079   2.473562   3.055978 C.3        1 UNL1     0.0009
     2 C         -2.887864   2.45302   3.94307 C.2        1 UNL1     -0.0787
     3 C         -4.243362   2.939306   4.092057 C.2        1 UNL1     -0.0649
     4 C         -5.436714   2.384579   5.157207 C.2        1 UNL1     -0.0542
     5 C         -6.827957   2.340463   5.42098 C.2        1 UNL1     0.0115
     6 C         -8.206975   2.913146   4.992419 C.3        1 UNL1     -0.0348
     7 C         -7.38929   1.242893   6.449199 C.2        1 UNL1     0.2441
     8 O         -7.701293   1.508954   7.601758 O.2        1 UNL1     -0.2702
     9 N         -7.744576   0.01505   5.864114 N.am        1 UNL1     -0.2772
     10 C         -6.656562   -0.825822   5.814304 C.2        1 UNL1     0.1049
     11 C         -5.833743   -0.653261   4.795769 C.2        1 UNL1     0.0801
     12 C         -4.796918   -1.748152   7.210142 C.ar        1 UNL1     0.0753
     13 C         -3.913551   -1.348977   6.157084 C.ar        1 UNL1     0.0305
     14 C         -4.420059   -0.907863   4.859425 C.2        1 UNL1     0.0924
     15 N         -5.986954   0.072447   3.674876 N.pl3        1 UNL1     -0.3170
     16 C         -4.872729   -0.213459   2.810576 C.3        1 UNL1     0.1275
     17 N         -3.755756   -0.599508   3.749225 N.2        1 UNL1     -0.2557
     18 C         -5.221221   -1.47452   2.025731 C.3        1 UNL1     0.0016
     19 C         -6.537191   -1.246983   1.299069 C.3        1 UNL1     0.0026
     20 N         -6.389604   -0.101611   0.411731 N.3        1 UNL1     -0.3018
     21 C         -5.994576   1.146443   1.067995 C.3        1 UNL1     0.0026
     22 C         -4.668194   0.896269   1.787729 C.3        1 UNL1     0.0016
     23 C         -7.476032   0.018036   -0.540111 C.3        1 UNL1     0.0012
     24 C         -8.307159   -1.274185   -0.574043 C.3        1 UNL1     -0.0339
     25 C         -8.849139   -1.557353   -1.984763 C.3        1 UNL1     -0.0615
     26 C         -7.483837   -2.436896   -0.047712 C.3        1 UNL1     -0.0615
     27 C         -4.306964   -2.281187   8.400074 C.ar        1 UNL1     0.1347
     28 C         -2.961229   -2.499052   8.635835 C.ar        1 UNL1     0.0342
     29 C         -2.107218   -2.053281   7.604759 C.ar        1 UNL1     0.1435
     30 C         -2.581672   -1.484241   6.422258 C.ar        1 UNL1     0.0774
     31 O         -0.778372   -2.294435   7.636659 O.3        1 UNL1     -0.4436
     32 C         -0.348795   -2.138911   6.275722 C.3        1 UNL1     0.3143
     33 C         -1.392448   -1.250068   5.629998 C.2        1 UNL1     0.2504
     34 C         -2.382659   -3.292151   9.774409 C.3        1 UNL1     -0.0327
     35 O         0.876127   -1.395727   6.297961 O.2        1 UNL1     -0.4528
     36 C         2.857185   -2.564121   3.2783 C.3        1 UNL1     0.0854
     37 C         2.451409   -2.550107   1.754269 C.3        1 UNL1     0.0236
     38 C         3.481217   -1.790591   0.787638 C.3        1 UNL1     0.1131
     39 C         3.960297   -0.326251   1.14605 C.3        1 UNL1     0.0200
     40 C         2.866679   0.812471   1.684335 C.3        1 UNL1     0.0661
     41 C         1.38527   1.192277   0.950316 C.3        1 UNL1     0.0091
     42 C         -0.201183   1.744447   1.687661 C.3        1 UNL1     0.0661
     43 C         -6.256639   -1.658956   6.958115 C.2        1 UNL1     0.2131
     44 O         -7.086464   -2.303978   7.572992 O.2        1 UNL1     -0.2851
     45 O         -5.2313   -2.601807   9.392164 O.3        1 UNL1     -0.5056
     46 O         -1.265188   -0.500546   4.687727 O.2        1 UNL1     -0.2836
     47 C         -0.460477   3.751776   3.425824 C.3        1 UNL1     -0.0566
     48 O         -0.396492   2.851663   0.720685 O.3        1 UNL1     -0.3909
     49 C         1.051728   0.117666   -0.060354 C.3        1 UNL1     -0.0577
     50 O         2.703832   0.727728   3.085771 O.3        1 UNL1     -0.3910
     51 O         3.967764   -1.769051   3.627453 O.3        1 UNL1     -0.3753
     52 C         0.902735   -2.445669   1.56545 C.3        1 UNL1     -0.0564
     53 O         3.267877   -2.086121   -0.668204 O.3        1 UNL1     -0.4608
     54 C         2.451404   -3.066021   -1.169301 C.2        1 UNL1     0.3042
     55 O         1.527367   -2.930919   -1.970388 O.2        1 UNL1     -0.2512
     56 C         2.807   -4.446167   -0.694473 C.3        1 UNL1     0.0332
     57 C         5.350971   -0.451185   1.926173 C.3        1 UNL1     -0.0567
     58 C         -0.421172   -3.542725   5.631053 C.3        1 UNL1     0.0210
     59 C         3.814143   -1.020951   4.832697 C.3        1 UNL1     0.0372
     60 C         1.762934   -2.211885   4.223659 C.2        1 UNL1     -0.0208
     61 C         1.764296   -1.404904   5.285509 C.2        1 UNL1     0.0882
     62 H         -0.907303   1.679276   3.724834 H        1 UNL1     0.0365
     63 H         -2.666807   1.76074   4.758148 H        1 UNL1     0.0576
     64 H         -4.682363   3.638837   3.377185 H        1 UNL1     0.0615
     65 H         -4.883746   1.764591   5.868069 H        1 UNL1     0.0622
     66 H         3.109671   -3.613269   3.487072 H        1 UNL1     0.0645
     67 H         2.580808   -3.598169   1.43274 H        1 UNL1     0.0362
     68 H         4.367207   -2.429169   0.924614 H        1 UNL1     0.0741
     69 H         4.364317   0.135608   0.255061 H        1 UNL1     0.0359
     70 H         3.459647   1.734227   1.530012 H        1 UNL1     0.0600
     71 H         1.704395   2.021165   0.288453 H        1 UNL1     0.0348
     72 H         0.571476   1.947895   2.443256 H        1 UNL1     0.0602
     73 H         0.916336   -2.819344   4.019912 H        1 UNL1     0.0628
     74 H         2.567559   -0.709112   5.530212 H        1 UNL1     0.1022
     75 H         -8.156217   4.024244   4.892826 H        1 UNL1     0.0279
     76 H         -8.577292   2.607151   4.01656 H        1 UNL1     0.0279
     77 H         -8.975074   2.800177   5.771498 H        1 UNL1     0.0279
     78 H         -8.056417   0.169489   4.907568 H        1 UNL1     0.1553
     79 H         -6.876411   0.383993   3.330292 H        1 UNL1     0.1484
     80 H         -4.408441   -1.694313   1.322989 H        1 UNL1     0.0317
     81 H         -5.30225   -2.340137   2.691909 H        1 UNL1     0.0317
     82 H         -7.370043   -1.098353   2.002048 H        1 UNL1     0.0428
     83 H         -6.767717   -2.158871   0.747374 H        1 UNL1     0.0428
     84 H         -5.813131   1.9703   0.370752 H        1 UNL1     0.0428
     85 H         -6.783618   1.527078   1.731204 H        1 UNL1     0.0428
     86 H         -4.344937   1.857672   2.141563 H        1 UNL1     0.0317
     87 H         -3.894131   0.619712   1.061479 H        1 UNL1     0.0317
     88 H         -8.124713   0.842383   -0.216136 H        1 UNL1     0.0429
     89 H         -7.103636   0.275705   -1.539961 H        1 UNL1     0.0429
     90 H         -9.156137   -1.173337   0.112454 H        1 UNL1     0.0308
     91 H         -8.070966   -1.428664   -2.743043 H        1 UNL1     0.0233
     92 H         -9.247926   -2.572476   -2.048815 H        1 UNL1     0.0233
     93 H         -9.673303   -0.887252   -2.257807 H        1 UNL1     0.0233
     94 H         -6.415896   -2.237218   -0.18724 H        1 UNL1     0.0233
     95 H         -7.665103   -2.568784   1.022666 H        1 UNL1     0.0233
     96 H         -7.731794   -3.36793   -0.565071 H        1 UNL1     0.0233
     97 H         -1.733933   -2.689192   10.40276 H        1 UNL1     0.0280
     98 H         -3.160604   -3.689418   10.439418 H        1 UNL1     0.0280
     99 H         -1.792781   -4.1337   9.375744 H        1 UNL1     0.0280
     100 H         -5.129502   -3.462563   9.758713 H        1 UNL1     0.2922
     101 H         0.596348   3.507028   3.530105 H        1 UNL1     0.0236
     102 H         -0.850883   4.262   4.305732 H        1 UNL1     0.0236
     103 H         -0.494774   4.508194   2.624045 H        1 UNL1     0.0236
     104 H         -1.189837   2.64297   0.189628 H        1 UNL1     0.2098
     105 H         1.299398   0.374496   -1.087247 H        1 UNL1     0.0234
     106 H         1.435551   -0.872622   0.184466 H        1 UNL1     0.0234
     107 H         0.0   -0.0   0.0 H        1 UNL1     0.0234
     108 H         3.443972   1.216975   3.493936 H        1 UNL1     0.2098
     109 H         0.41893   -3.432152   1.543195 H        1 UNL1     0.0234
     110 H         0.418518   -1.817034   2.320496 H        1 UNL1     0.0234
     111 H         0.642646   -1.965495   0.6127 H        1 UNL1     0.0234
     112 H         1.977053   -5.132133   -0.889366 H        1 UNL1     0.0342
     113 H         3.72875   -4.809827   -1.146105 H        1 UNL1     0.0342
     114 H         2.962295   -4.405654   0.392453 H        1 UNL1     0.0342
     115 H         5.242333   -0.218376   2.994436 H        1 UNL1     0.0234
     116 H         5.815565   -1.436303   1.850389 H        1 UNL1     0.0234
     117 H         6.096997   0.301742   1.618784 H        1 UNL1     0.0234
     118 H         0.269566   -3.642162   4.775483 H        1 UNL1     0.0309
     119 H         -0.229367   -4.352472   6.342195 H        1 UNL1     0.0309
     120 H         -1.401652   -3.752596   5.189783 H        1 UNL1     0.0309
     121 H         4.771625   -0.549436   5.052375 H        1 UNL1     0.0524
     122 H         3.063863   -0.218788   4.734448 H        1 UNL1     0.0524
     123 H         3.523753   -1.677386   5.648086 H        1 UNL1     0.0524
@<TRIPOS>BOND
     1     1     2    1
     2     1    42    1
     3     2     3    2
     4     3     4    1
     5     4     5    2
     6     5     7    1
     7     6    75    1
     8     6    76    1
     9     6    77    1
    10     7     9   am
    11     9    10    1
    12    10    11    2
    13    10    43    1
    14    11    14    1
    15    11    15    1
    16    12    13   ar
    17    12    27   ar
    18    12    43    1
    19    13    14    1
    20    13    30   ar
    21    14    17    2
    22    15    16    1
    23    16    17    1
    24    16    18    1
    25    16    22    1
    26    18    19    1
    27    19    20    1
    28    20    21    1
    29    21    22    1
    30    23    24    1
    31    23    88    1
    32    23    89    1
    33    24    25    1
    34    24    26    1
    35    24    90    1
    36    25    91    1
    37    25    92    1
    38    25    93    1
    39    26    94    1
    40    26    95    1
    41    26    96    1
    42    27    28   ar
    43    28    29   ar
    44    29    30   ar
    45    29    31    1
    46    30    33    1
    47    31    32    1
    48    32    33    1
    49    32    35    1
    50    34    97    1
    51    34    98    1
    52    34    99    1
    53    35    61    1
    54    36    37    1
    55    36    60    1
    56    37    38    1
    57    38    39    1
    58    39    40    1
    59    40    41    1
    60    41    42    1
    61    45   100    1
    62    47   101    1
    63    47   102    1
    64    47   103    1
    65    48   104    1
    66    49   105    1
    67    49   106    1
    68    49   107    1
    69    50   108    1
    70    51    59    1
    71    52   109    1
    72    52   110    1
    73    52   111    1
    74    53    54    1
    75    54    55    2
    76    54    56    1
    77    56   112    1
    78    56   113    1
    79    56   114    1
    80    57   115    1
    81    57   116    1
    82    57   117    1
    83    58   118    1
    84    58   119    1
    85    58   120    1
    86    59   121    1
    87    59   122    1
    88    59   123    1
    89    60    61    2
    90     1    47    1
    91     1    62    1
    92     2    63    1
    93     3    64    1
    94     4    65    1
    95     5     6    1
    96     7     8    2
    97     9    78    1
    98    15    79    1
    99    18    80    1
   100    18    81    1
   101    19    82    1
   102    19    83    1
   103    20    23    1
   104    21    84    1
   105    21    85    1
   106    22    86    1
   107    22    87    1
   108    27    45    1
   109    28    34    1
   110    32    58    1
   111    33    46    2
   112    36    51    1
   113    36    66    1
   114    37    52    1
   115    37    67    1
   116    38    53    1
   117    38    68    1
   118    42    48    1
   119    42    72    1
   120    43    44    2
   121    60    73    1
   122    61    74    1
   123    39    69    1
   124    39    57    1
   125    40    70    1
   126    40    50    1
   127    41    71    1
   128    41    49    1
