@<TRIPOS>MOLECULE
*****
 123 128 0 0 0
SMALL
GASTEIGER

@<TRIPOS>ATOM
     1 C         -0.356914   -1.408088   -4.65586 C.3        1 UNL1     0.0009
     2 C         -1.46518   -2.410993   -5.752657 C.2        1 UNL1     -0.0787
     3 C         -1.905033   -3.694574   -6.257628 C.2        1 UNL1     -0.0649
     4 C         -3.204336   -4.015039   -7.294677 C.2        1 UNL1     -0.0542
     5 C         -4.102054   -5.00802   -7.758539 C.2        1 UNL1     0.0115
     6 C         -4.404988   -6.531652   -7.748527 C.3        1 UNL1     -0.0348
     7 C         -5.451393   -4.550903   -8.498348 C.2        1 UNL1     0.2441
     8 O         -5.590065   -4.589521   -9.713175 O.2        1 UNL1     -0.2702
     9 N         -6.551564   -4.351193   -7.646355 N.am        1 UNL1     -0.2772
     10 C         -6.565475   -3.058536   -7.175008 C.2        1 UNL1     0.1049
     11 C         -5.795408   -2.811409   -6.130907 C.2        1 UNL1     0.0801
     12 C         -6.392564   -0.675351   -7.915186 C.ar        1 UNL1     0.0753
     13 C         -5.402092   -0.512289   -6.894899 C.ar        1 UNL1     0.0305
     14 C         -5.167802   -1.541465   -5.884476 C.2        1 UNL1     0.0924
     15 N         -5.151292   -3.660815   -5.312278 N.pl3        1 UNL1     -0.3170
     16 C         -4.593692   -2.891751   -4.231595 C.3        1 UNL1     0.1275
     17 N         -4.371066   -1.5198   -4.819737 N.2        1 UNL1     -0.2557
     18 C         -5.687651   -2.72952   -3.180578 C.3        1 UNL1     0.0016
     19 C         -6.184151   -4.109146   -2.778443 C.3        1 UNL1     0.0026
     20 N         -5.062421   -4.875236   -2.253222 N.3        1 UNL1     -0.3018
     21 C         -3.932822   -5.03284   -3.171664 C.3        1 UNL1     0.0026
     22 C         -3.447096   -3.634992   -3.558944 C.3        1 UNL1     0.0016
     23 C         -5.476145   -6.084499   -1.569732 C.3        1 UNL1     0.0012
     24 C         -4.907176   -6.118044   -0.14253 C.3        1 UNL1     -0.0339
     25 C         -3.801908   -7.177683   -0.002514 C.3        1 UNL1     -0.0615
     26 C         -4.411776   -4.737911   0.253184 C.3        1 UNL1     -0.0615
     27 C         -6.694139   0.357295   -8.799953 C.ar        1 UNL1     0.1347
     28 C         -6.102279   1.606238   -8.737554 C.ar        1 UNL1     0.0342
     29 C         -5.095433   1.727887   -7.75642 C.ar        1 UNL1     0.1435
     30 C         -4.757194   0.690439   -6.88664 C.ar        1 UNL1     0.0774
     31 O         -4.502955   2.914123   -7.497923 O.3        1 UNL1     -0.4436
     32 C         -3.930759   2.756495   -6.190782 C.3        1 UNL1     0.3143
     33 C         -3.753282   1.262063   -6.013615 C.2        1 UNL1     0.2504
     34 C         -6.550044   2.832372   -9.483344 C.3        1 UNL1     -0.0327
     35 O         -2.618553   3.33093   -6.228098 O.2        1 UNL1     -0.4528
     36 C         -1.938589   4.601646   -2.716543 C.3        1 UNL1     0.0854
     37 C         -1.950688   3.811819   -1.351425 C.3        1 UNL1     0.0236
     38 C         -0.600164   3.923637   -0.493914 C.3        1 UNL1     0.1131
     39 C         0.793169   3.626117   -1.181209 C.3        1 UNL1     0.0200
     40 C         0.970074   2.317823   -2.200773 C.3        1 UNL1     0.0661
     41 C         0.497163   0.724044   -1.863381 C.3        1 UNL1     0.0091
     42 C         -0.111408   -0.598317   -2.979806 C.3        1 UNL1     0.0661
     43 C         -7.151663   -1.950198   -7.943334 C.2        1 UNL1     0.2131
     44 O         -8.242666   -2.072414   -8.470128 O.2        1 UNL1     -0.2851
     45 O         -7.637963   0.101384   -9.792497 O.3        1 UNL1     -0.5056
     46 O         -2.949441   0.675193   -5.324212 O.2        1 UNL1     -0.2836
     47 C         1.077399   -1.349848   -5.246908 C.3        1 UNL1     -0.0566
     48 O         0.788083   -1.638434   -2.424659 O.3        1 UNL1     -0.3909
     49 C         -0.407966   0.729718   -0.651687 C.3        1 UNL1     -0.0577
     50 O         0.606379   2.660097   -3.523005 O.3        1 UNL1     -0.3910
     51 O         -0.699729   5.157377   -3.095781 O.3        1 UNL1     -0.3753
     52 C         -2.759485   2.477877   -1.458173 C.3        1 UNL1     -0.0564
     53 O         -0.753143   3.4719   0.929061 O.3        1 UNL1     -0.4608
     54 C         0.189139   2.788106   1.651876 C.2        1 UNL1     0.3042
     55 O         0.003252   2.08195   2.642143 O.2        1 UNL1     -0.2512
     56 C         1.578518   2.90677   1.093077 C.3        1 UNL1     0.0332
     57 C         1.407648   5.025922   -1.651459 C.3        1 UNL1     -0.0567
     58 C         -4.994076   3.25533   -5.184775 C.3        1 UNL1     0.0210
     59 C         -0.790535   6.306099   -3.937242 C.3        1 UNL1     0.0372
     60 C         -2.44335   3.837416   -3.889714 C.2        1 UNL1     -0.0208
     61 C         -1.954604   3.728705   -5.125858 C.2        1 UNL1     0.0882
     62 H         -0.872512   -0.501836   -4.995827 H        1 UNL1     0.0365
     63 H         -1.998934   -1.618805   -6.281822 H        1 UNL1     0.0576
     64 H         -1.509091   -4.63203   -5.860747 H        1 UNL1     0.0615
     65 H         -3.469084   -3.031549   -7.692343 H        1 UNL1     0.0622
     66 H         -2.649972   5.425667   -2.564985 H        1 UNL1     0.0645
     67 H         -2.658547   4.377315   -0.720781 H        1 UNL1     0.0362
     68 H         -0.600247   5.005434   -0.290845 H        1 UNL1     0.0741
     69 H         1.525892   3.42696   -0.410586 H        1 UNL1     0.0359
     70 H         2.07417   2.244948   -2.227658 H        1 UNL1     0.0600
     71 H         1.437676   0.331015   -1.429882 H        1 UNL1     0.0348
     72 H         0.400243   0.131104   -3.624379 H        1 UNL1     0.0602
     73 H         -3.397732   3.433456   -3.659017 H        1 UNL1     0.0628
     74 H         -0.961773   4.063647   -5.428081 H        1 UNL1     0.1022
     75 H         -5.454459   -6.720511   -7.416898 H        1 UNL1     0.0279
     76 H         -4.367879   -7.039985   -8.709407 H        1 UNL1     0.0279
     77 H         -3.834053   -7.073719   -6.980479 H        1 UNL1     0.0279
     78 H         -6.47765   -4.969944   -6.841519 H        1 UNL1     0.1553
     79 H         -5.382782   -4.633272   -5.224688 H        1 UNL1     0.1484
     80 H         -5.279496   -2.184437   -2.320892 H        1 UNL1     0.0317
     81 H         -6.516673   -2.127841   -3.568336 H        1 UNL1     0.0317
     82 H         -6.660633   -4.631882   -3.620835 H        1 UNL1     0.0428
     83 H         -6.96473   -3.970104   -2.029836 H        1 UNL1     0.0428
     84 H         -3.072902   -5.542438   -2.725952 H        1 UNL1     0.0428
     85 H         -4.193806   -5.657313   -4.037249 H        1 UNL1     0.0428
     86 H         -2.544052   -3.787488   -4.120411 H        1 UNL1     0.0317
     87 H         -3.103529   -3.097172   -2.666863 H        1 UNL1     0.0317
     88 H         -6.572326   -6.084512   -1.509057 H        1 UNL1     0.0429
     89 H         -5.185217   -6.980424   -2.133162 H        1 UNL1     0.0429
     90 H         -5.713557   -6.359649   0.560031 H        1 UNL1     0.0308
     91 H         -4.217638   -8.152458   0.269673 H        1 UNL1     0.0233
     92 H         -3.23983   -7.275037   -0.934286 H        1 UNL1     0.0233
     93 H         -3.069164   -6.917179   0.770827 H        1 UNL1     0.0233
     94 H         -4.417931   -4.632658   1.343468 H        1 UNL1     0.0233
     95 H         -3.38427   -4.596188   -0.093384 H        1 UNL1     0.0233
     96 H         -5.039938   -3.950947   -0.173512 H        1 UNL1     0.0233
     97 H         -5.953712   3.703824   -9.229987 H        1 UNL1     0.0280
     98 H         -6.458922   2.711658   -10.570717 H        1 UNL1     0.0280
     99 H         -7.602232   3.050253   -9.237328 H        1 UNL1     0.0280
     100 H         -7.277864   -0.018418   -10.653659 H        1 UNL1     0.2922
     101 H         1.217172   -2.16729   -5.95395 H        1 UNL1     0.0236
     102 H         1.854972   -1.331513   -4.484001 H        1 UNL1     0.0236
     103 H         1.244064   -0.435201   -5.840066 H        1 UNL1     0.0236
     104 H         1.242226   -1.252789   -1.650061 H        1 UNL1     0.2098
     105 H         -0.435872   1.675488   -0.116382 H        1 UNL1     0.0234
     106 H         -1.420183   0.370927   -0.837733 H        1 UNL1     0.0234
     107 H         0.0   0.0   0.0 H        1 UNL1     0.0234
     108 H         0.761311   1.872685   -4.079554 H        1 UNL1     0.2098
     109 H         -2.646124   2.000224   -2.441386 H        1 UNL1     0.0234
     110 H         -2.509681   1.75888   -0.670528 H        1 UNL1     0.0234
     111 H         -3.837237   2.646855   -1.332299 H        1 UNL1     0.0234
     112 H         2.272454   2.308028   1.690828 H        1 UNL1     0.0342
     113 H         1.622991   2.623542   0.04253 H        1 UNL1     0.0342
     114 H         1.889828   3.957791   1.16794 H        1 UNL1     0.0342
     115 H         2.503401   5.038346   -1.571718 H        1 UNL1     0.0234
     116 H         1.149809   5.302253   -2.675768 H        1 UNL1     0.0234
     117 H         1.136486   5.868876   -0.992793 H        1 UNL1     0.0234
     118 H         -4.734264   4.241558   -4.76186 H        1 UNL1     0.0309
     119 H         -6.000796   3.302768   -5.611936 H        1 UNL1     0.0309
     120 H         -5.069881   2.613308   -4.300372 H        1 UNL1     0.0309
     121 H         -0.354602   6.044149   -4.900934 H        1 UNL1     0.0524
     122 H         -1.834784   6.611363   -4.117233 H        1 UNL1     0.0524
     123 H         -0.250816   7.139059   -3.495683 H        1 UNL1     0.0524
@<TRIPOS>BOND
     1     1     2    1
     2     1    42    1
     3     2     3    2
     4     3     4    1
     5     4     5    2
     6     5     7    1
     7     6    75    1
     8     6    76    1
     9     6    77    1
    10     7     9   am
    11     9    10    1
    12    10    11    2
    13    10    43    1
    14    11    14    1
    15    11    15    1
    16    12    13   ar
    17    12    27   ar
    18    12    43    1
    19    13    14    1
    20    13    30   ar
    21    14    17    2
    22    15    16    1
    23    16    17    1
    24    16    18    1
    25    16    22    1
    26    18    19    1
    27    19    20    1
    28    20    21    1
    29    21    22    1
    30    23    24    1
    31    23    88    1
    32    23    89    1
    33    24    25    1
    34    24    26    1
    35    24    90    1
    36    25    91    1
    37    25    92    1
    38    25    93    1
    39    26    94    1
    40    26    95    1
    41    26    96    1
    42    27    28   ar
    43    28    29   ar
    44    29    30   ar
    45    29    31    1
    46    30    33    1
    47    31    32    1
    48    32    33    1
    49    32    35    1
    50    34    97    1
    51    34    98    1
    52    34    99    1
    53    35    61    1
    54    36    37    1
    55    36    60    1
    56    37    38    1
    57    38    39    1
    58    39    40    1
    59    40    41    1
    60    41    42    1
    61    45   100    1
    62    47   101    1
    63    47   102    1
    64    47   103    1
    65    48   104    1
    66    49   105    1
    67    49   106    1
    68    49   107    1
    69    50   108    1
    70    51    59    1
    71    52   109    1
    72    52   110    1
    73    52   111    1
    74    53    54    1
    75    54    55    2
    76    54    56    1
    77    56   112    1
    78    56   113    1
    79    56   114    1
    80    57   115    1
    81    57   116    1
    82    57   117    1
    83    58   118    1
    84    58   119    1
    85    58   120    1
    86    59   121    1
    87    59   122    1
    88    59   123    1
    89    60    61    2
    90     1    47    1
    91     1    62    1
    92     2    63    1
    93     3    64    1
    94     4    65    1
    95     5     6    1
    96     7     8    2
    97     9    78    1
    98    15    79    1
    99    18    80    1
   100    18    81    1
   101    19    82    1
   102    19    83    1
   103    20    23    1
   104    21    84    1
   105    21    85    1
   106    22    86    1
   107    22    87    1
   108    27    45    1
   109    28    34    1
   110    32    58    1
   111    33    46    2
   112    36    51    1
   113    36    66    1
   114    37    52    1
   115    37    67    1
   116    38    53    1
   117    38    68    1
   118    42    48    1
   119    42    72    1
   120    43    44    2
   121    60    73    1
   122    61    74    1
   123    39    69    1
   124    39    57    1
   125    40    70    1
   126    40    50    1
   127    41    71    1
   128    41    49    1
