@<TRIPOS>MOLECULE
*****
 123 128 0 0 0
SMALL
GASTEIGER

@<TRIPOS>ATOM
     1 C         5.28304   0.629561   0.867373 C.3        1 UNL1     0.0009
     2 C         6.978296   0.592145   0.117878 C.2        1 UNL1     -0.0787
     3 C         8.193025   -0.126052   -0.205655 C.2        1 UNL1     -0.0649
     4 C         9.5118   0.417625   -1.117579 C.2        1 UNL1     -0.0542
     5 C         10.644308   0.021972   -1.871211 C.2        1 UNL1     0.0115
     6 C         11.545655   -1.187066   -2.244206 C.3        1 UNL1     -0.0348
     7 C         11.310336   1.074898   -2.883507 C.2        1 UNL1     0.2441
     8 O         12.337293   1.687627   -2.625737 O.2        1 UNL1     -0.2702
     9 N         10.783577   1.053188   -4.186659 N.am        1 UNL1     -0.2772
     10 C         9.700011   1.896017   -4.280712 C.2        1 UNL1     0.1049
     11 C         8.543249   1.404305   -3.875316 C.2        1 UNL1     0.0801
     12 C         8.94253   4.219887   -3.748563 C.ar        1 UNL1     0.0753
     13 C         7.797924   3.621506   -3.131777 C.ar        1 UNL1     0.0305
     14 C         7.497753   2.200477   -3.291857 C.2        1 UNL1     0.0924
     15 N         8.199251   0.139839   -3.576456 N.pl3        1 UNL1     -0.3170
     16 C         6.777822   0.111795   -3.355077 C.3        1 UNL1     0.1275
     17 N         6.441826   1.504404   -2.880242 N.2        1 UNL1     -0.2557
     18 C         6.110841   -0.043194   -4.718461 C.3        1 UNL1     0.0016
     19 C         6.665862   -1.287746   -5.392725 C.3        1 UNL1     0.0026
     20 N         6.396005   -2.439658   -4.543429 N.3        1 UNL1     -0.3018
     21 C         6.945751   -2.355715   -3.18877 C.3        1 UNL1     0.0026
     22 C         6.371429   -1.101101   -2.528472 C.3        1 UNL1     0.0016
     23 C         6.612372   -3.70266   -5.22067 C.3        1 UNL1     0.0012
     24 C         5.530486   -3.934149   -6.287296 C.3        1 UNL1     -0.0339
     25 C         5.181059   -5.425624   -6.419432 C.3        1 UNL1     -0.0615
     26 C         4.302132   -3.097928   -5.973193 C.3        1 UNL1     -0.0615
     27 C         9.156416   5.5951   -3.69233 C.ar        1 UNL1     0.1347
     28 C         8.278357   6.474706   -3.084584 C.ar        1 UNL1     0.0342
     29 C         7.183883   5.857973   -2.441987 C.ar        1 UNL1     0.1435
     30 C         6.975804   4.478251   -2.459005 C.ar        1 UNL1     0.0774
     31 O         6.183139   6.585973   -1.9002 O.3        1 UNL1     -0.4436
     32 C         5.085666   5.667287   -1.788651 C.3        1 UNL1     0.3143
     33 C         5.721543   4.292137   -1.75975 C.2        1 UNL1     0.2504
     34 C         8.309972   7.973248   -3.200662 C.3        1 UNL1     -0.0327
     35 O         4.484309   5.875914   -0.504868 O.2        1 UNL1     -0.4528
     36 C         0.812302   5.009949   -0.92267 C.3        1 UNL1     0.0854
     37 C         0.156138   3.663502   -1.416684 C.3        1 UNL1     0.0236
     38 C         -0.916719   3.025306   -0.409992 C.3        1 UNL1     0.1131
     39 C         -0.538662   2.817504   1.111902 C.3        1 UNL1     0.0200
     40 C         0.953059   2.202936   1.535592 C.3        1 UNL1     0.0661
     41 C         1.671788   0.807311   0.892733 C.3        1 UNL1     0.0091
     42 C         3.437843   0.403197   0.60438 C.3        1 UNL1     0.0661
     43 C         9.847652   3.338231   -4.526828 C.2        1 UNL1     0.2131
     44 O         10.599032   3.743279   -5.395218 O.2        1 UNL1     -0.2851
     45 O         10.318559   6.091725   -4.279037 O.3        1 UNL1     -0.5056
     46 O         5.298406   3.276768   -1.253949 O.2        1 UNL1     -0.2836
     47 C         5.378888   0.660767   2.416509 C.3        1 UNL1     -0.0566
     48 O         3.347964   -0.943395   1.218976 O.3        1 UNL1     -0.3909
     49 C         0.916688   0.398851   -0.352449 C.3        1 UNL1     -0.0577
     50 O         1.911053   3.237281   1.636089 O.3        1 UNL1     -0.3910
     51 O         0.512551   5.392065   0.400798 O.3        1 UNL1     -0.3753
     52 C         1.168579   2.783267   -2.219864 C.3        1 UNL1     -0.0564
     53 O         -1.770883   1.962646   -1.037273 O.3        1 UNL1     -0.4608
     54 C         -2.200793   0.818963   -0.416711 C.2        1 UNL1     0.3042
     55 O         -1.599424   -0.250184   -0.32122 O.2        1 UNL1     -0.2512
     56 C         -3.538673   0.963588   0.251028 C.3        1 UNL1     0.0332
     57 C         -1.078642   4.087318   1.920708 C.3        1 UNL1     -0.0567
     58 C         4.262548   5.809046   -3.090154 C.3        1 UNL1     0.0210
     59 C         -0.372083   6.505475   0.517444 C.3        1 UNL1     0.0372
     60 C         2.292387   5.077146   -1.064075 C.2        1 UNL1     -0.0208
     61 C         3.223855   5.503847   -0.210237 C.2        1 UNL1     0.0882
     62 H         5.181761   1.671033   0.539058 H        1 UNL1     0.0365
     63 H         7.095444   1.638167   -0.172956 H        1 UNL1     0.0576
     64 H         8.294681   -1.195947   -0.010466 H        1 UNL1     0.0615
     65 H         9.353918   1.497382   -1.185988 H        1 UNL1     0.0622
     66 H         0.409868   5.777435   -1.598731 H        1 UNL1     0.0645
     67 H         -0.488692   3.972307   -2.257751 H        1 UNL1     0.0362
     68 H         -1.673121   3.824893   -0.416183 H        1 UNL1     0.0741
     69 H         -1.222537   2.10011   1.545573 H        1 UNL1     0.0359
     70 H         0.748806   1.912293   2.583861 H        1 UNL1     0.0600
     71 H         1.31417   0.052892   1.620687 H        1 UNL1     0.0348
     72 H         3.430174   1.224715   1.335382 H        1 UNL1     0.0602
     73 H         2.559235   4.834004   -2.062535 H        1 UNL1     0.0628
     74 H         3.042891   5.717119   0.843805 H        1 UNL1     0.1022
     75 H         11.827747   -1.762581   -1.329744 H        1 UNL1     0.0279
     76 H         11.095499   -1.952064   -2.87286 H        1 UNL1     0.0279
     77 H         12.532695   -0.881384   -2.62105 H        1 UNL1     0.0279
     78 H         10.461255   0.113804   -4.409693 H        1 UNL1     0.1553
     79 H         8.718723   -0.664482   -3.876704 H        1 UNL1     0.1484
     80 H         5.025239   -0.113331   -4.579485 H        1 UNL1     0.0317
     81 H         6.290466   0.837532   -5.344327 H        1 UNL1     0.0317
     82 H         7.741802   -1.19265   -5.600628 H        1 UNL1     0.0428
     83 H         6.17823   -1.378242   -6.363846 H        1 UNL1     0.0428
     84 H         6.66175   -3.195763   -2.547308 H        1 UNL1     0.0428
     85 H         8.044231   -2.381261   -3.191088 H        1 UNL1     0.0428
     86 H         6.687177   -1.14347   -1.50256 H        1 UNL1     0.0317
     87 H         5.279433   -1.179437   -2.461368 H        1 UNL1     0.0317
     88 H         7.590166   -3.660356   -5.718087 H        1 UNL1     0.0429
     89 H         6.65012   -4.53619   -4.507524 H        1 UNL1     0.0429
     90 H         5.898041   -3.574499   -7.25568 H        1 UNL1     0.0308
     91 H         5.041066   -5.889739   -5.438564 H        1 UNL1     0.0233
     92 H         4.272882   -5.558581   -7.012007 H        1 UNL1     0.0233
     93 H         5.96636   -5.994765   -6.931502 H        1 UNL1     0.0233
     94 H         3.420131   -3.523053   -6.464294 H        1 UNL1     0.0233
     95 H         4.118574   -3.093886   -4.895115 H        1 UNL1     0.0233
     96 H         4.423927   -2.066078   -6.314396 H        1 UNL1     0.0233
     97 H         7.384975   8.369944   -3.608392 H        1 UNL1     0.0280
     98 H         8.442445   8.461103   -2.226134 H        1 UNL1     0.0280
     99 H         9.137252   8.274653   -3.863879 H        1 UNL1     0.0280
     100 H         11.105905   5.639065   -4.032445 H        1 UNL1     0.2922
     101 H         5.158411   1.664811   2.778367 H        1 UNL1     0.0236
     102 H         6.330859   0.289616   2.794638 H        1 UNL1     0.0236
     103 H         4.618325   0.018806   2.891506 H        1 UNL1     0.0236
     104 H         2.756524   -0.875058   1.993895 H        1 UNL1     0.2098
     105 H         0.685092   1.219542   -1.02672 H        1 UNL1     0.0234
     106 H         1.361977   -0.429052   -0.90401 H        1 UNL1     0.0234
     107 H         0.0   -0.0   0.0 H        1 UNL1     0.0234
     108 H         2.308194   3.179363   2.526422 H        1 UNL1     0.2098
     109 H         1.538652   3.292128   -3.120873 H        1 UNL1     0.0234
     110 H         2.017124   2.443827   -1.61613 H        1 UNL1     0.0234
     111 H         0.704357   1.852968   -2.573403 H        1 UNL1     0.0234
     112 H         -3.812427   0.025314   0.743011 H        1 UNL1     0.0342
     113 H         -3.557258   1.793946   0.955302 H        1 UNL1     0.0342
     114 H         -4.289066   1.1684   -0.524941 H        1 UNL1     0.0342
     115 H         -0.601177   4.177075   2.906182 H        1 UNL1     0.0234
     116 H         -0.939224   5.037088   1.400564 H        1 UNL1     0.0234
     117 H         -2.141899   4.007876   2.205512 H        1 UNL1     0.0234
     118 H         3.282399   6.284705   -2.911092 H        1 UNL1     0.0309
     119 H         4.790467   6.360798   -3.87442 H        1 UNL1     0.0309
     120 H         3.997043   4.840242   -3.527226 H        1 UNL1     0.0309
     121 H         -0.173693   6.985234   1.475478 H        1 UNL1     0.0524
     122 H         -0.204383   7.257505   -0.271458 H        1 UNL1     0.0524
     123 H         -1.404762   6.171366   0.472274 H        1 UNL1     0.0524
@<TRIPOS>BOND
     1     1     2    1
     2     1    42    1
     3     2     3    2
     4     3     4    1
     5     4     5    2
     6     5     7    1
     7     6    75    1
     8     6    76    1
     9     6    77    1
    10     7     9   am
    11     9    10    1
    12    10    11    2
    13    10    43    1
    14    11    14    1
    15    11    15    1
    16    12    13   ar
    17    12    27   ar
    18    12    43    1
    19    13    14    1
    20    13    30   ar
    21    14    17    2
    22    15    16    1
    23    16    17    1
    24    16    18    1
    25    16    22    1
    26    18    19    1
    27    19    20    1
    28    20    21    1
    29    21    22    1
    30    23    24    1
    31    23    88    1
    32    23    89    1
    33    24    25    1
    34    24    26    1
    35    24    90    1
    36    25    91    1
    37    25    92    1
    38    25    93    1
    39    26    94    1
    40    26    95    1
    41    26    96    1
    42    27    28   ar
    43    28    29   ar
    44    29    30   ar
    45    29    31    1
    46    30    33    1
    47    31    32    1
    48    32    33    1
    49    32    35    1
    50    34    97    1
    51    34    98    1
    52    34    99    1
    53    35    61    1
    54    36    37    1
    55    36    60    1
    56    37    38    1
    57    38    39    1
    58    39    40    1
    59    40    41    1
    60    41    42    1
    61    45   100    1
    62    47   101    1
    63    47   102    1
    64    47   103    1
    65    48   104    1
    66    49   105    1
    67    49   106    1
    68    49   107    1
    69    50   108    1
    70    51    59    1
    71    52   109    1
    72    52   110    1
    73    52   111    1
    74    53    54    1
    75    54    55    2
    76    54    56    1
    77    56   112    1
    78    56   113    1
    79    56   114    1
    80    57   115    1
    81    57   116    1
    82    57   117    1
    83    58   118    1
    84    58   119    1
    85    58   120    1
    86    59   121    1
    87    59   122    1
    88    59   123    1
    89    60    61    2
    90     1    47    1
    91     1    62    1
    92     2    63    1
    93     3    64    1
    94     4    65    1
    95     5     6    1
    96     7     8    2
    97     9    78    1
    98    15    79    1
    99    18    80    1
   100    18    81    1
   101    19    82    1
   102    19    83    1
   103    20    23    1
   104    21    84    1
   105    21    85    1
   106    22    86    1
   107    22    87    1
   108    27    45    1
   109    28    34    1
   110    32    58    1
   111    33    46    2
   112    36    51    1
   113    36    66    1
   114    37    52    1
   115    37    67    1
   116    38    53    1
   117    38    68    1
   118    42    48    1
   119    42    72    1
   120    43    44    2
   121    60    73    1
   122    61    74    1
   123    39    69    1
   124    39    57    1
   125    40    70    1
   126    40    50    1
   127    41    71    1
   128    41    49    1
