@<TRIPOS>MOLECULE
*****
 123 128 0 0 0
SMALL
GASTEIGER

@<TRIPOS>ATOM
     1 C         5.114601   1.907061   0.464471 C.3        1 UNL1     0.0009
     2 C         6.50353   2.795551   -0.383171 C.2        1 UNL1     -0.0787
     3 C         7.77859   2.769447   -1.068435 C.2        1 UNL1     -0.0649
     4 C         8.592139   4.060158   -1.802302 C.2        1 UNL1     -0.0542
     5 C         9.585171   4.420431   -2.746319 C.2        1 UNL1     0.0115
     6 C         10.726011   3.866443   -3.643484 C.3        1 UNL1     -0.0348
     7 C         9.609102   5.921808   -3.314018 C.2        1 UNL1     0.2441
     8 O         10.40304   6.767534   -2.925516 O.2        1 UNL1     -0.2702
     9 N         8.833881   6.127359   -4.468545 N.am        1 UNL1     -0.2772
     10 C         7.540711   6.4508   -4.127341 C.2        1 UNL1     0.1049
     11 C         6.74094   5.436988   -3.850263 C.2        1 UNL1     0.0801
     12 C         6.196433   7.963228   -2.656691 C.ar        1 UNL1     0.0753
     13 C         5.492159   6.792712   -2.229492 C.ar        1 UNL1     0.0305
     14 C         5.654601   5.510552   -2.911203 C.2        1 UNL1     0.0924
     15 N         6.917118   4.119057   -4.046597 N.pl3        1 UNL1     -0.3170
     16 C         5.678334   3.458415   -3.731605 C.3        1 UNL1     0.1275
     17 N         5.016571   4.359685   -2.717946 N.2        1 UNL1     -0.2557
     18 C         4.805467   3.514332   -4.981676 C.3        1 UNL1     0.0016
     19 C         5.572007   2.892804   -6.13827 C.3        1 UNL1     0.0026
     20 N         5.905555   1.517776   -5.793199 N.3        1 UNL1     -0.3018
     21 C         6.692935   1.357497   -4.568979 C.3        1 UNL1     0.0026
     22 C         5.902172   1.984631   -3.419504 C.3        1 UNL1     0.0016
     23 C         6.368011   0.747283   -6.930352 C.3        1 UNL1     0.0012
     24 C         5.209943   0.474786   -7.903173 C.3        1 UNL1     -0.0339
     25 C         5.526656   0.996013   -9.31458 C.3        1 UNL1     -0.0615
     26 C         4.87834   -1.007326   -7.915964 C.3        1 UNL1     -0.0615
     27 C         5.946413   9.206477   -2.080547 C.ar        1 UNL1     0.1347
     28 C         4.990913   9.409727   -1.100874 C.ar        1 UNL1     0.0342
     29 C         4.344542   8.234789   -0.661682 C.ar        1 UNL1     0.1435
     30 C         4.610431   6.976956   -1.204249 C.ar        1 UNL1     0.0774
     31 O         3.312214   8.281567   0.208443 O.3        1 UNL1     -0.4436
     32 C         2.641127   7.023344   0.042947 C.3        1 UNL1     0.3143
     33 C         3.687519   6.088513   -0.529216 C.2        1 UNL1     0.2504
     34 C         4.493371   10.743568   -0.617737 C.3        1 UNL1     -0.0327
     35 O         2.318396   6.537317   1.351715 O.2        1 UNL1     -0.4528
     36 C         -0.845791   4.480113   0.946844 C.3        1 UNL1     0.0854
     37 C         -1.110738   3.231674   0.020168 C.3        1 UNL1     0.0236
     38 C         -1.646102   1.926002   0.781974 C.3        1 UNL1     0.1131
     39 C         -0.879761   1.392427   2.058802 C.3        1 UNL1     0.0200
     40 C         0.786512   1.31659   2.073742 C.3        1 UNL1     0.0661
     41 C         1.760313   0.620167   0.871946 C.3        1 UNL1     0.0091
     42 C         3.442721   1.069649   0.294996 C.3        1 UNL1     0.0661
     43 C         7.137972   7.825579   -3.79547 C.2        1 UNL1     0.2131
     44 O         7.489164   8.758386   -4.49495 O.2        1 UNL1     -0.2851
     45 O         6.70759   10.286846   -2.521964 O.3        1 UNL1     -0.5056
     46 O         3.756102   4.883729   -0.431003 O.2        1 UNL1     -0.2836
     47 C         5.549592   1.457232   1.885182 C.3        1 UNL1     -0.0566
     48 O         3.951481   -0.322776   0.332863 O.3        1 UNL1     -0.3909
     49 C         0.91871   0.384943   -0.362505 C.3        1 UNL1     -0.0577
     50 O         1.34052   2.548137   2.490984 O.3        1 UNL1     -0.3910
     51 O         -0.941516   4.248897   2.334218 O.3        1 UNL1     -0.3753
     52 C         -0.077332   3.146032   -1.150169 C.3        1 UNL1     -0.0564
     53 O         -2.217428   0.88631   -0.137239 O.3        1 UNL1     -0.4608
     54 C         -2.360257   -0.444186   0.158246 C.2        1 UNL1     0.3042
     55 O         -1.650854   -1.3743   -0.223165 O.2        1 UNL1     -0.2512
     56 C         -3.493299   -0.73248   1.101546 C.3        1 UNL1     0.0332
     57 C         -1.609901   1.996854   3.34711 C.3        1 UNL1     -0.0567
     58 C         1.540896   7.250871   -1.019716 C.3        1 UNL1     0.0210
     59 C         -1.293303   5.393705   3.109799 C.3        1 UNL1     0.0372
     60 C         0.452024   5.170945   0.715356 C.2        1 UNL1     -0.0208
     61 C         1.35837   5.62163   1.583783 C.2        1 UNL1     0.0882
     62 H         4.598961   2.867489   0.584491 H        1 UNL1     0.0365
     63 H         6.194684   3.833957   -0.246071 H        1 UNL1     0.0576
     64 H         8.273305   1.829052   -1.321464 H        1 UNL1     0.0615
     65 H         8.072024   4.944613   -1.424544 H        1 UNL1     0.0622
     66 H         -1.625668   5.202198   0.666787 H        1 UNL1     0.0645
     67 H         -1.997357   3.519901   -0.570925 H        1 UNL1     0.0362
     68 H         -2.605516   2.312856   1.157994 H        1 UNL1     0.0741
     69 H         -1.165513   0.363376   2.23145 H        1 UNL1     0.0359
     70 H         0.938823   0.638721   2.935343 H        1 UNL1     0.0600
     71 H         1.853088   -0.40907   1.270722 H        1 UNL1     0.0348
     72 H         3.33064   1.52705   1.288745 H        1 UNL1     0.0602
     73 H         0.546402   5.400145   -0.317024 H        1 UNL1     0.0628
     74 H         1.365292   5.382425   2.647724 H        1 UNL1     0.1022
     75 H         10.767518   2.752231   -3.581488 H        1 UNL1     0.0279
     76 H         10.62879   4.038089   -4.713135 H        1 UNL1     0.0279
     77 H         11.726199   4.141333   -3.27775 H        1 UNL1     0.0279
     78 H         8.80095   5.269624   -5.015614 H        1 UNL1     0.1553
     79 H         7.590768   3.736065   -4.684127 H        1 UNL1     0.1484
     80 H         3.86865   2.978065   -4.787878 H        1 UNL1     0.0317
     81 H         4.531462   4.547268   -5.221709 H        1 UNL1     0.0317
     82 H         6.475752   3.469499   -6.384402 H        1 UNL1     0.0428
     83 H         4.932169   2.944695   -7.019726 H        1 UNL1     0.0428
     84 H         6.861574   0.312852   -4.289535 H        1 UNL1     0.0428
     85 H         7.704987   1.771572   -4.676723 H        1 UNL1     0.0428
     86 H         6.441852   1.732714   -2.525484 H        1 UNL1     0.0317
     87 H         4.945644   1.462684   -3.294118 H        1 UNL1     0.0317
     88 H         7.132781   1.336063   -7.453573 H        1 UNL1     0.0429
     89 H         6.84513   -0.188127   -6.610758 H        1 UNL1     0.0429
     90 H         4.307958   0.980382   -7.53847 H        1 UNL1     0.0308
     91 H         6.535945   0.711213   -9.626551 H        1 UNL1     0.0233
     92 H         4.805302   0.611317   -10.039333 H        1 UNL1     0.0233
     93 H         5.470654   2.089467   -9.378287 H        1 UNL1     0.0233
     94 H         4.357856   -1.269923   -8.843312 H        1 UNL1     0.0233
     95 H         5.79839   -1.596482   -7.867327 H        1 UNL1     0.0233
     96 H         4.239184   -1.280535   -7.071687 H        1 UNL1     0.0233
     97 H         3.658198   10.642553   0.06893 H        1 UNL1     0.0280
     98 H         5.265945   11.3003   -0.071444 H        1 UNL1     0.0280
     99 H         4.162126   11.347643   -1.478239 H        1 UNL1     0.0280
     100 H         6.207819   11.051506   -2.74812 H        1 UNL1     0.2922
     101 H         4.686388   1.076463   2.430663 H        1 UNL1     0.0236
     102 H         6.07308   2.23537   2.439659 H        1 UNL1     0.0236
     103 H         6.256124   0.611065   1.853464 H        1 UNL1     0.0236
     104 H         4.302186   -0.48435   1.230566 H        1 UNL1     0.2098
     105 H         0.700426   1.282923   -0.93504 H        1 UNL1     0.0234
     106 H         1.285601   -0.402713   -1.020467 H        1 UNL1     0.0234
     107 H         0.0   -0.0   0.0 H        1 UNL1     0.0234
     108 H         1.158577   3.201112   1.787928 H        1 UNL1     0.2098
     109 H         0.957721   3.078736   -0.787059 H        1 UNL1     0.0234
     110 H         -0.277509   2.320391   -1.841537 H        1 UNL1     0.0234
     111 H         -0.111526   4.040353   -1.786539 H        1 UNL1     0.0234
     112 H         -3.538835   -1.805393   1.311616 H        1 UNL1     0.0342
     113 H         -3.415806   -0.156935   2.022734 H        1 UNL1     0.0342
     114 H         -4.432089   -0.445816   0.607924 H        1 UNL1     0.0342
     115 H         -2.691132   1.80212   3.332721 H        1 UNL1     0.0234
     116 H         -1.221036   1.620331   4.295299 H        1 UNL1     0.0234
     117 H         -1.592491   3.099644   3.385739 H        1 UNL1     0.0234
     118 H         0.533345   7.295202   -0.570403 H        1 UNL1     0.0309
     119 H         1.704475   8.150339   -1.621714 H        1 UNL1     0.0309
     120 H         1.464359   6.420376   -1.730016 H        1 UNL1     0.0309
     121 H         -0.90055   5.244197   4.115159 H        1 UNL1     0.0524
     122 H         -0.846824   6.320853   2.713452 H        1 UNL1     0.0524
     123 H         -2.373075   5.50826   3.142395 H        1 UNL1     0.0524
@<TRIPOS>BOND
     1     1     2    1
     2     1    42    1
     3     2     3    2
     4     3     4    1
     5     4     5    2
     6     5     7    1
     7     6    75    1
     8     6    76    1
     9     6    77    1
    10     7     9   am
    11     9    10    1
    12    10    11    2
    13    10    43    1
    14    11    14    1
    15    11    15    1
    16    12    13   ar
    17    12    27   ar
    18    12    43    1
    19    13    14    1
    20    13    30   ar
    21    14    17    2
    22    15    16    1
    23    16    17    1
    24    16    18    1
    25    16    22    1
    26    18    19    1
    27    19    20    1
    28    20    21    1
    29    21    22    1
    30    23    24    1
    31    23    88    1
    32    23    89    1
    33    24    25    1
    34    24    26    1
    35    24    90    1
    36    25    91    1
    37    25    92    1
    38    25    93    1
    39    26    94    1
    40    26    95    1
    41    26    96    1
    42    27    28   ar
    43    28    29   ar
    44    29    30   ar
    45    29    31    1
    46    30    33    1
    47    31    32    1
    48    32    33    1
    49    32    35    1
    50    34    97    1
    51    34    98    1
    52    34    99    1
    53    35    61    1
    54    36    37    1
    55    36    60    1
    56    37    38    1
    57    38    39    1
    58    39    40    1
    59    40    41    1
    60    41    42    1
    61    45   100    1
    62    47   101    1
    63    47   102    1
    64    47   103    1
    65    48   104    1
    66    49   105    1
    67    49   106    1
    68    49   107    1
    69    50   108    1
    70    51    59    1
    71    52   109    1
    72    52   110    1
    73    52   111    1
    74    53    54    1
    75    54    55    2
    76    54    56    1
    77    56   112    1
    78    56   113    1
    79    56   114    1
    80    57   115    1
    81    57   116    1
    82    57   117    1
    83    58   118    1
    84    58   119    1
    85    58   120    1
    86    59   121    1
    87    59   122    1
    88    59   123    1
    89    60    61    2
    90     1    47    1
    91     1    62    1
    92     2    63    1
    93     3    64    1
    94     4    65    1
    95     5     6    1
    96     7     8    2
    97     9    78    1
    98    15    79    1
    99    18    80    1
   100    18    81    1
   101    19    82    1
   102    19    83    1
   103    20    23    1
   104    21    84    1
   105    21    85    1
   106    22    86    1
   107    22    87    1
   108    27    45    1
   109    28    34    1
   110    32    58    1
   111    33    46    2
   112    36    51    1
   113    36    66    1
   114    37    52    1
   115    37    67    1
   116    38    53    1
   117    38    68    1
   118    42    48    1
   119    42    72    1
   120    43    44    2
   121    60    73    1
   122    61    74    1
   123    39    69    1
   124    39    57    1
   125    40    70    1
   126    40    50    1
   127    41    71    1
   128    41    49    1
