@<TRIPOS>MOLECULE
*****
 123 128 0 0 0
SMALL
GASTEIGER

@<TRIPOS>ATOM
     1 C         5.16117   1.777119   0.451043 C.3        1 UNL1     0.0009
     2 C         6.592612   2.575307   -0.415507 C.2        1 UNL1     -0.0787
     3 C         7.873333   2.471648   -1.082631 C.2        1 UNL1     -0.0649
     4 C         8.744023   3.698064   -1.859909 C.2        1 UNL1     -0.0542
     5 C         9.760681   3.979778   -2.805489 C.2        1 UNL1     0.0115
     6 C         10.889396   3.345126   -3.66371 C.3        1 UNL1     -0.0348
     7 C         9.848611   5.453535   -3.435804 C.2        1 UNL1     0.2441
     8 O         10.670034   6.284404   -3.073246 O.2        1 UNL1     -0.2702
     9 N         9.094851   5.63878   -4.607845 N.am        1 UNL1     -0.2772
     10 C         7.811311   6.025272   -4.297248 C.2        1 UNL1     0.1049
     11 C         6.970142   5.055259   -3.987844 C.2        1 UNL1     0.0801
     12 C         6.509694   7.649017   -2.909235 C.ar        1 UNL1     0.0753
     13 C         5.756246   6.525354   -2.442005 C.ar        1 UNL1     0.0305
     14 C         5.876967   5.209997   -3.066756 C.2        1 UNL1     0.0924
     15 N         7.097772   3.724413   -4.126003 N.pl3        1 UNL1     -0.3170
     16 C         5.831078   3.125247   -3.799289 C.3        1 UNL1     0.1275
     17 N         5.193087   4.093442   -2.83322 N.2        1 UNL1     -0.2557
     18 C         4.975076   3.160718   -5.061708 C.3        1 UNL1     0.0016
     19 C         5.730105   2.461731   -6.181055 C.3        1 UNL1     0.0026
     20 N         6.006715   1.091058   -5.773904 N.3        1 UNL1     -0.3018
     21 C         6.773582   0.95353   -4.533996 C.3        1 UNL1     0.0026
     22 C         5.994644   1.658727   -3.422309 C.3        1 UNL1     0.0016
     23 C         6.451966   0.2557   -6.871434 C.3        1 UNL1     0.0012
     24 C         5.29527   -0.014052   -7.846649 C.3        1 UNL1     -0.0339
     25 C         5.344391   0.936613   -9.054076 C.3        1 UNL1     -0.0615
     26 C         5.308401   -1.469581   -8.280288 C.3        1 UNL1     -0.0615
     27 C         6.301155   8.924333   -2.389427 C.ar        1 UNL1     0.1347
     28 C         5.343238   9.205324   -1.43157 C.ar        1 UNL1     0.0342
     29 C         4.647342   8.075564   -0.951428 C.ar        1 UNL1     0.1435
     30 C         4.870801   6.786522   -1.436872 C.ar        1 UNL1     0.0774
     31 O         3.607879   8.198567   -0.097382 O.3        1 UNL1     -0.4436
     32 C         2.89087   6.960751   -0.218135 C.3        1 UNL1     0.3143
     33 C         3.906942   5.963347   -0.736782 C.2        1 UNL1     0.2504
     34 C         4.891897   10.576487   -1.011685 C.3        1 UNL1     -0.0327
     35 O         2.535057   6.54368   1.105762 O.2        1 UNL1     -0.4528
     36 C         -0.701054   4.592417   0.747646 C.3        1 UNL1     0.0854
     37 C         -1.003337   3.31645   -0.128743 C.3        1 UNL1     0.0236
     38 C         -1.596953   2.065751   0.68065 C.3        1 UNL1     0.1131
     39 C         -0.866033   1.558582   1.988628 C.3        1 UNL1     0.0200
     40 C         0.795826   1.420375   2.028149 C.3        1 UNL1     0.0661
     41 C         1.755582   0.636829   0.869471 C.3        1 UNL1     0.0091
     42 C         3.460373   0.997176   0.295678 C.3        1 UNL1     0.0661
     43 C         7.457963   7.427249   -4.028996 C.2        1 UNL1     0.2131
     44 O         7.852539   8.315333   -4.762724 O.2        1 UNL1     -0.2851
     45 O         7.108159   9.955233   -2.86632 O.3        1 UNL1     -0.5056
     46 O         3.928105   4.762129   -0.586848 O.2        1 UNL1     -0.2836
     47 C         5.562608   1.372262   1.894968 C.3        1 UNL1     -0.0566
     48 O         3.914832   -0.410633   0.398909 O.3        1 UNL1     -0.3909
     49 C         0.919463   0.381118   -0.364632 C.3        1 UNL1     -0.0577
     50 O         1.392003   2.646753   2.400026 O.3        1 UNL1     -0.3910
     51 O         -0.821139   4.424499   2.142212 O.3        1 UNL1     -0.3753
     52 C         0.039076   3.141774   -1.28105 C.3        1 UNL1     -0.0564
     53 O         -2.197438   1.010117   -0.201041 O.3        1 UNL1     -0.4608
     54 C         -2.425769   -0.29197   0.160018 C.2        1 UNL1     0.3042
     55 O         -1.852632   -1.295555   -0.262081 O.2        1 UNL1     -0.2512
     56 C         -3.464121   -0.444788   1.234814 C.3        1 UNL1     0.0332
     57 C         -1.586826   2.244747   3.24075 C.3        1 UNL1     -0.0567
     58 C         1.812173   7.184177   -1.303502 C.3        1 UNL1     0.0210
     59 C         -1.13738   5.613915   2.864118 C.3        1 UNL1     0.0372
     60 C         0.624846   5.223056   0.503836 C.2        1 UNL1     -0.0208
     61 C         1.538035   5.67578   1.363994 C.2        1 UNL1     0.0882
     62 H         4.681478   2.760645   0.52372 H        1 UNL1     0.0365
     63 H         6.32235   3.629579   -0.326409 H        1 UNL1     0.0576
     64 H         8.334378   1.503231   -1.289303 H        1 UNL1     0.0615
     65 H         8.254052   4.616927   -1.52659 H        1 UNL1     0.0622
     66 H         -1.449438   5.330902   0.427322 H        1 UNL1     0.0645
     67 H         -1.871551   3.612537   -0.742825 H        1 UNL1     0.0362
     68 H         -2.54496   2.504396   1.027632 H        1 UNL1     0.0741
     69 H         -1.193008   0.549416   2.200947 H        1 UNL1     0.0359
     70 H         0.912324   0.774665   2.919523 H        1 UNL1     0.0600
     71 H         1.804288   -0.3772   1.312564 H        1 UNL1     0.0348
     72 H         3.354802   1.500548   1.267679 H        1 UNL1     0.0602
     73 H         0.739527   5.404183   -0.536015 H        1 UNL1     0.0628
     74 H         1.523835   5.482174   2.437098 H        1 UNL1     0.1022
     75 H         10.920053   2.238808   -3.514869 H        1 UNL1     0.0279
     76 H         10.786261   3.433538   -4.742884 H        1 UNL1     0.0279
     77 H         11.89491   3.637124   -3.326993 H        1 UNL1     0.0279
     78 H         9.035144   4.760312   -5.118537 H        1 UNL1     0.1553
     79 H         7.763325   3.289276   -4.738071 H        1 UNL1     0.1484
     80 H         4.016242   2.669104   -4.857451 H        1 UNL1     0.0317
     81 H         4.743646   4.192091   -5.348696 H        1 UNL1     0.0317
     82 H         6.658032   2.992723   -6.439727 H        1 UNL1     0.0428
     83 H         5.102656   2.500108   -7.072057 H        1 UNL1     0.0428
     84 H         6.898838   -0.083857   -4.208493 H        1 UNL1     0.0428
     85 H         7.801933   1.323978   -4.64615 H        1 UNL1     0.0428
     86 H         6.514193   1.424983   -2.511583 H        1 UNL1     0.0317
     87 H         5.017433   1.179233   -3.287256 H        1 UNL1     0.0317
     88 H         7.2446   0.792182   -7.40922 H        1 UNL1     0.0429
     89 H         6.889199   -0.682601   -6.506479 H        1 UNL1     0.0429
     90 H         4.342852   0.134195   -7.324024 H        1 UNL1     0.0308
     91 H         6.29775   0.856416   -9.584904 H        1 UNL1     0.0233
     92 H         4.528336   0.722098   -9.748083 H        1 UNL1     0.0233
     93 H         5.229842   1.987774   -8.762915 H        1 UNL1     0.0233
     94 H         4.623071   -1.619244   -9.121572 H        1 UNL1     0.0233
     95 H         6.312365   -1.752507   -8.608879 H        1 UNL1     0.0233
     96 H         5.004222   -2.131682   -7.464773 H        1 UNL1     0.0233
     97 H         4.094185   10.535366   -0.276026 H        1 UNL1     0.0280
     98 H         5.70104   11.153844   -0.545636 H        1 UNL1     0.0280
     99 H         4.522701   11.128925   -1.891232 H        1 UNL1     0.0280
     100 H         6.637519   10.70356   -3.189008 H        1 UNL1     0.2922
     101 H         4.699559   0.954773   2.413142 H        1 UNL1     0.0236
     102 H         6.022578   2.185162   2.455866 H        1 UNL1     0.0236
     103 H         6.312951   0.564129   1.905017 H        1 UNL1     0.0236
     104 H         4.331541   -0.522514   1.275725 H        1 UNL1     0.2098
     105 H         0.701844   1.269807   -0.951732 H        1 UNL1     0.0234
     106 H         1.290503   -0.415809   -1.008964 H        1 UNL1     0.0234
     107 H         0.0   -0.0   0.0 H        1 UNL1     0.0234
     108 H         1.204197   3.288289   1.688036 H        1 UNL1     0.2098
     109 H         1.066645   3.05089   -0.902163 H        1 UNL1     0.0234
     110 H         -0.184892   2.295518   -1.939405 H        1 UNL1     0.0234
     111 H         0.046389   4.008734   -1.955049 H        1 UNL1     0.0234
     112 H         -3.582539   -1.502184   1.490229 H        1 UNL1     0.0342
     113 H         -3.229031   0.146641   2.118436 H        1 UNL1     0.0342
     114 H         -4.42353   -0.084515   0.838706 H        1 UNL1     0.0342
     115 H         -2.657933   2.002876   3.278387 H        1 UNL1     0.0234
     116 H         -1.154643   1.972619   4.205744 H        1 UNL1     0.0234
     117 H         -1.619085   3.346232   3.180499 H        1 UNL1     0.0234
     118 H         0.909485   7.672592   -0.896549 H        1 UNL1     0.0309
     119 H         2.176751   7.761335   -2.159174 H        1 UNL1     0.0309
     120 H         1.427488   6.244013   -1.713645 H        1 UNL1     0.0309
     121 H         -0.302386   6.303788   2.744891 H        1 UNL1     0.0524
     122 H         -2.039229   6.113505   2.47282 H        1 UNL1     0.0524
     123 H         -1.288468   5.386452   3.915558 H        1 UNL1     0.0524
@<TRIPOS>BOND
     1     1     2    1
     2     1    42    1
     3     2     3    2
     4     3     4    1
     5     4     5    2
     6     5     7    1
     7     6    75    1
     8     6    76    1
     9     6    77    1
    10     7     9   am
    11     9    10    1
    12    10    11    2
    13    10    43    1
    14    11    14    1
    15    11    15    1
    16    12    13   ar
    17    12    27   ar
    18    12    43    1
    19    13    14    1
    20    13    30   ar
    21    14    17    2
    22    15    16    1
    23    16    17    1
    24    16    18    1
    25    16    22    1
    26    18    19    1
    27    19    20    1
    28    20    21    1
    29    21    22    1
    30    23    24    1
    31    23    88    1
    32    23    89    1
    33    24    25    1
    34    24    26    1
    35    24    90    1
    36    25    91    1
    37    25    92    1
    38    25    93    1
    39    26    94    1
    40    26    95    1
    41    26    96    1
    42    27    28   ar
    43    28    29   ar
    44    29    30   ar
    45    29    31    1
    46    30    33    1
    47    31    32    1
    48    32    33    1
    49    32    35    1
    50    34    97    1
    51    34    98    1
    52    34    99    1
    53    35    61    1
    54    36    37    1
    55    36    60    1
    56    37    38    1
    57    38    39    1
    58    39    40    1
    59    40    41    1
    60    41    42    1
    61    45   100    1
    62    47   101    1
    63    47   102    1
    64    47   103    1
    65    48   104    1
    66    49   105    1
    67    49   106    1
    68    49   107    1
    69    50   108    1
    70    51    59    1
    71    52   109    1
    72    52   110    1
    73    52   111    1
    74    53    54    1
    75    54    55    2
    76    54    56    1
    77    56   112    1
    78    56   113    1
    79    56   114    1
    80    57   115    1
    81    57   116    1
    82    57   117    1
    83    58   118    1
    84    58   119    1
    85    58   120    1
    86    59   121    1
    87    59   122    1
    88    59   123    1
    89    60    61    2
    90     1    47    1
    91     1    62    1
    92     2    63    1
    93     3    64    1
    94     4    65    1
    95     5     6    1
    96     7     8    2
    97     9    78    1
    98    15    79    1
    99    18    80    1
   100    18    81    1
   101    19    82    1
   102    19    83    1
   103    20    23    1
   104    21    84    1
   105    21    85    1
   106    22    86    1
   107    22    87    1
   108    27    45    1
   109    28    34    1
   110    32    58    1
   111    33    46    2
   112    36    51    1
   113    36    66    1
   114    37    52    1
   115    37    67    1
   116    38    53    1
   117    38    68    1
   118    42    48    1
   119    42    72    1
   120    43    44    2
   121    60    73    1
   122    61    74    1
   123    39    69    1
   124    39    57    1
   125    40    70    1
   126    40    50    1
   127    41    71    1
   128    41    49    1
