@<TRIPOS>MOLECULE
*****
 123 128 0 0 0
SMALL
GASTEIGER

@<TRIPOS>ATOM
     1 C         5.168537   1.744969   0.490489 C.3        1 UNL1     0.0009
     2 C         6.605623   2.550192   -0.360062 C.2        1 UNL1     -0.0787
     3 C         7.887286   2.451198   -1.026084 C.2        1 UNL1     -0.0649
     4 C         8.765463   3.685823   -1.781639 C.2        1 UNL1     -0.0542
     5 C         9.785498   3.977899   -2.720415 C.2        1 UNL1     0.0115
     6 C         10.913056   3.351794   -3.586398 C.3        1 UNL1     -0.0348
     7 C         9.881777   5.461194   -3.326676 C.2        1 UNL1     0.2441
     8 O         10.706336   6.282178   -2.949034 O.2        1 UNL1     -0.2702
     9 N         9.131452   5.668912   -4.497154 N.am        1 UNL1     -0.2772
     10 C         7.849085   6.056464   -4.183052 C.2        1 UNL1     0.1049
     11 C         7.00266   5.085611   -3.891109 C.2        1 UNL1     0.0801
     12 C         6.55216   7.663802   -2.771747 C.ar        1 UNL1     0.0753
     13 C         5.792384   6.536356   -2.324294 C.ar        1 UNL1     0.0305
     14 C         5.908231   5.230686   -2.969938 C.2        1 UNL1     0.0924
     15 N         7.124286   3.756573   -4.050461 N.pl3        1 UNL1     -0.3170
     16 C         5.854061   3.158265   -3.736117 C.3        1 UNL1     0.1275
     17 N         5.218564   4.113785   -2.755888 N.2        1 UNL1     -0.2557
     18 C         5.000983   3.218177   -4.999592 C.3        1 UNL1     0.0016
     19 C         5.755125   2.53374   -6.128487 C.3        1 UNL1     0.0026
     20 N         6.024354   1.155375   -5.742932 N.3        1 UNL1     -0.3018
     21 C         6.787863   0.994209   -4.5038 C.3        1 UNL1     0.0026
     22 C         6.009859   1.685092   -3.382513 C.3        1 UNL1     0.0016
     23 C         6.468028   0.335713   -6.852865 C.3        1 UNL1     0.0012
     24 C         5.31219   0.087248   -7.834731 C.3        1 UNL1     -0.0339
     25 C         5.338218   1.090614   -8.999478 C.3        1 UNL1     -0.0615
     26 C         5.350439   -1.347399   -8.331829 C.3        1 UNL1     -0.0615
     27 C         6.348533   8.931548   -2.231862 C.ar        1 UNL1     0.1347
     28 C         5.389878   9.20162   -1.271606 C.ar        1 UNL1     0.0342
     29 C         4.687597   8.067596   -0.811221 C.ar        1 UNL1     0.1435
     30 C         4.906003   6.785499   -1.316936 C.ar        1 UNL1     0.0774
     31 O         3.646874   8.181765   0.042517 O.3        1 UNL1     -0.4436
     32 C         2.924274   6.949492   -0.0997 C.3        1 UNL1     0.3143
     33 C         3.936736   5.955747   -0.632246 C.2        1 UNL1     0.2504
     34 C         4.944124   10.567969   -0.830594 C.3        1 UNL1     -0.0327
     35 O         2.563612   6.512825   1.216543 O.2        1 UNL1     -0.4528
     36 C         -0.680918   4.583053   0.820195 C.3        1 UNL1     0.0854
     37 C         -0.987335   3.322844   -0.077304 C.3        1 UNL1     0.0236
     38 C         -1.588627   2.0621   0.710551 C.3        1 UNL1     0.1131
     39 C         -0.862962   1.530418   2.011702 C.3        1 UNL1     0.0200
     40 C         0.798133   1.383664   2.052474 C.3        1 UNL1     0.0661
     41 C         1.756684   0.614339   0.883316 C.3        1 UNL1     0.0091
     42 C         3.464407   0.975757   0.31899 C.3        1 UNL1     0.0661
     43 C         7.5018   7.455602   -3.89295 C.2        1 UNL1     0.2131
     44 O         7.902171   8.353512   -4.611419 O.2        1 UNL1     -0.2851
     45 O         7.161446   9.966144   -2.690361 O.3        1 UNL1     -0.5056
     46 O         3.951883   4.75218   -0.501674 O.2        1 UNL1     -0.2836
     47 C         5.564913   1.314965   1.928531 C.3        1 UNL1     -0.0566
     48 O         3.911967   -0.435687   0.40044 O.3        1 UNL1     -0.3909
     49 C         0.922048   0.382559   -0.356505 C.3        1 UNL1     -0.0577
     50 O         1.399303   2.601027   2.445344 O.3        1 UNL1     -0.3910
     51 O         -0.804829   4.393239   2.211615 O.3        1 UNL1     -0.3753
     52 C         0.056742   3.161806   -1.230092 C.3        1 UNL1     -0.0564
     53 O         -2.192187   1.023701   -0.189321 O.3        1 UNL1     -0.4608
     54 C         -2.414977   -0.286286   0.145685 C.2        1 UNL1     0.3042
     55 O         -1.843134   -1.279376   -0.302206 O.2        1 UNL1     -0.2512
     56 C         -3.444478   -0.464272   1.225112 C.3        1 UNL1     0.0332
     57 C         -1.583218   2.199729   3.273222 C.3        1 UNL1     -0.0567
     58 C         1.849009   7.195539   -1.183581 C.3        1 UNL1     0.0210
     59 C         -1.147928   5.566007   2.948339 C.3        1 UNL1     0.0372
     60 C         0.648481   5.21121   0.589377 C.2        1 UNL1     -0.0208
     61 C         1.561931   5.645639   1.458643 C.2        1 UNL1     0.0882
     62 H         4.693352   2.729473   0.578025 H        1 UNL1     0.0365
     63 H         6.340165   3.604167   -0.254527 H        1 UNL1     0.0576
     64 H         8.344188   1.484051   -1.247392 H        1 UNL1     0.0615
     65 H         8.279126   4.601517   -1.434562 H        1 UNL1     0.0622
     66 H         -1.425098   5.330171   0.510263 H        1 UNL1     0.0645
     67 H         -1.8528   3.632936   -0.688348 H        1 UNL1     0.0362
     68 H         -2.535298   2.499608   1.062577 H        1 UNL1     0.0741
     69 H         -1.195175   0.519531   2.207021 H        1 UNL1     0.0359
     70 H         0.909633   0.723113   2.933553 H        1 UNL1     0.0600
     71 H         1.799624   -0.406925   1.310086 H        1 UNL1     0.0348
     72 H         3.359108   1.463884   1.298765 H        1 UNL1     0.0602
     73 H         0.766278   5.408536   -0.447173 H        1 UNL1     0.0628
     74 H         1.544482   5.43482   2.52845 H        1 UNL1     0.1022
     75 H         10.956769   2.246459   -3.433565 H        1 UNL1     0.0279
     76 H         10.799232   3.434835   -4.664924 H        1 UNL1     0.0279
     77 H         11.918429   3.655716   -3.259966 H        1 UNL1     0.0279
     78 H         9.068696   4.799091   -5.022082 H        1 UNL1     0.1553
     79 H         7.7891   3.328194   -4.668075 H        1 UNL1     0.1484
     80 H         4.03939   2.727913   -4.805307 H        1 UNL1     0.0317
     81 H         4.775065   4.255137   -5.270381 H        1 UNL1     0.0317
     82 H         6.686116   3.064403   -6.37661 H        1 UNL1     0.0428
     83 H         5.129803   2.589477   -7.020068 H        1 UNL1     0.0428
     84 H         6.907496   -0.048879   -4.19482 H        1 UNL1     0.0428
     85 H         7.818199   1.361507   -4.607804 H        1 UNL1     0.0428
     86 H         6.526314   1.434213   -2.47459 H        1 UNL1     0.0317
     87 H         5.030097   1.208149   -3.257266 H        1 UNL1     0.0317
     88 H         7.264361   0.877012   -7.380259 H        1 UNL1     0.0429
     89 H         6.900017   -0.610428   -6.502186 H        1 UNL1     0.0429
     90 H         4.359531   0.194568   -7.302624 H        1 UNL1     0.0308
     91 H         6.288164   1.047278   -9.540611 H        1 UNL1     0.0233
     92 H         4.519478   0.895275   -9.695982 H        1 UNL1     0.0233
     93 H         5.211614   2.126252   -8.661455 H        1 UNL1     0.0233
     94 H         4.653869   -1.476344   -9.167292 H        1 UNL1     0.0233
     95 H         6.354549   -1.59235   -8.689215 H        1 UNL1     0.0233
     96 H         5.075743   -2.051157   -7.541111 H        1 UNL1     0.0233
     97 H         4.150924   10.518655   -0.090573 H        1 UNL1     0.0280
     98 H         5.7574   11.137351   -0.361933 H        1 UNL1     0.0280
     99 H         4.570651   11.132905   -1.700341 H        1 UNL1     0.0280
     100 H         6.694885   10.717143   -3.012766 H        1 UNL1     0.2922
     101 H         4.701904   0.881877   2.43381 H        1 UNL1     0.0236
     102 H         6.016415   2.119896   2.507509 H        1 UNL1     0.0236
     103 H         6.320579   0.511747   1.927133 H        1 UNL1     0.0236
     104 H         4.331615   -0.56211   1.273871 H        1 UNL1     0.2098
     105 H         0.709918   1.28163   -0.92964 H        1 UNL1     0.0234
     106 H         1.290709   -0.405633   -1.012834 H        1 UNL1     0.0234
     107 H         0.0   -0.0   0.0 H        1 UNL1     0.0234
     108 H         1.201067   3.259525   1.75191 H        1 UNL1     0.2098
     109 H         1.081584   3.047531   -0.850157 H        1 UNL1     0.0234
     110 H         -0.176461   2.334975   -1.909585 H        1 UNL1     0.0234
     111 H         0.078419   4.0447   -1.882759 H        1 UNL1     0.0234
     112 H         -3.567952   -1.52803   1.449877 H        1 UNL1     0.0342
     113 H         -3.197163   0.098806   2.12379 H        1 UNL1     0.0342
     114 H         -4.404931   -0.085841   0.848968 H        1 UNL1     0.0342
     115 H         -2.653012   1.952222   3.311544 H        1 UNL1     0.0234
     116 H         -1.146734   1.919512   4.233956 H        1 UNL1     0.0234
     117 H         -1.621029   3.30162   3.224764 H        1 UNL1     0.0234
     118 H         0.948386   7.683037   -0.770991 H        1 UNL1     0.0309
     119 H         2.218603   7.783379   -2.029777 H        1 UNL1     0.0309
     120 H         1.459663   6.263924   -1.608561 H        1 UNL1     0.0309
     121 H         -0.343206   6.288001   2.81231 H        1 UNL1     0.0524
     122 H         -2.077838   6.032583   2.582809 H        1 UNL1     0.0524
     123 H         -1.263535   5.327643   4.001862 H        1 UNL1     0.0524
@<TRIPOS>BOND
     1     1     2    1
     2     1    42    1
     3     2     3    2
     4     3     4    1
     5     4     5    2
     6     5     7    1
     7     6    75    1
     8     6    76    1
     9     6    77    1
    10     7     9   am
    11     9    10    1
    12    10    11    2
    13    10    43    1
    14    11    14    1
    15    11    15    1
    16    12    13   ar
    17    12    27   ar
    18    12    43    1
    19    13    14    1
    20    13    30   ar
    21    14    17    2
    22    15    16    1
    23    16    17    1
    24    16    18    1
    25    16    22    1
    26    18    19    1
    27    19    20    1
    28    20    21    1
    29    21    22    1
    30    23    24    1
    31    23    88    1
    32    23    89    1
    33    24    25    1
    34    24    26    1
    35    24    90    1
    36    25    91    1
    37    25    92    1
    38    25    93    1
    39    26    94    1
    40    26    95    1
    41    26    96    1
    42    27    28   ar
    43    28    29   ar
    44    29    30   ar
    45    29    31    1
    46    30    33    1
    47    31    32    1
    48    32    33    1
    49    32    35    1
    50    34    97    1
    51    34    98    1
    52    34    99    1
    53    35    61    1
    54    36    37    1
    55    36    60    1
    56    37    38    1
    57    38    39    1
    58    39    40    1
    59    40    41    1
    60    41    42    1
    61    45   100    1
    62    47   101    1
    63    47   102    1
    64    47   103    1
    65    48   104    1
    66    49   105    1
    67    49   106    1
    68    49   107    1
    69    50   108    1
    70    51    59    1
    71    52   109    1
    72    52   110    1
    73    52   111    1
    74    53    54    1
    75    54    55    2
    76    54    56    1
    77    56   112    1
    78    56   113    1
    79    56   114    1
    80    57   115    1
    81    57   116    1
    82    57   117    1
    83    58   118    1
    84    58   119    1
    85    58   120    1
    86    59   121    1
    87    59   122    1
    88    59   123    1
    89    60    61    2
    90     1    47    1
    91     1    62    1
    92     2    63    1
    93     3    64    1
    94     4    65    1
    95     5     6    1
    96     7     8    2
    97     9    78    1
    98    15    79    1
    99    18    80    1
   100    18    81    1
   101    19    82    1
   102    19    83    1
   103    20    23    1
   104    21    84    1
   105    21    85    1
   106    22    86    1
   107    22    87    1
   108    27    45    1
   109    28    34    1
   110    32    58    1
   111    33    46    2
   112    36    51    1
   113    36    66    1
   114    37    52    1
   115    37    67    1
   116    38    53    1
   117    38    68    1
   118    42    48    1
   119    42    72    1
   120    43    44    2
   121    60    73    1
   122    61    74    1
   123    39    69    1
   124    39    57    1
   125    40    70    1
   126    40    50    1
   127    41    71    1
   128    41    49    1
