@<TRIPOS>MOLECULE
*****
 123 128 0 0 0
SMALL
GASTEIGER

@<TRIPOS>ATOM
     1 C         1.965187   3.082857   -3.980953 C.3        1 UNL1     0.0009
     2 C         2.897556   3.116777   -5.583006 C.2        1 UNL1     -0.0787
     3 C         4.143564   3.247134   -6.308621 C.2        1 UNL1     -0.0649
     4 C         4.406223   3.049038   -7.969381 C.2        1 UNL1     -0.0542
     5 C         5.377915   2.798295   -8.969391 C.2        1 UNL1     0.0115
     6 C         6.903911   2.69155   -9.240068 C.3        1 UNL1     -0.0348
     7 C         4.893003   2.298964   -10.415945 C.2        1 UNL1     0.2441
     8 O         4.830313   3.038277   -11.388576 O.2        1 UNL1     -0.2702
     9 N         4.795297   0.90353   -10.555117 N.am        1 UNL1     -0.2772
     10 C         3.548818   0.468392   -10.167472 C.2        1 UNL1     0.1049
     11 C         3.373181   0.285695   -8.871325 C.2        1 UNL1     0.0801
     12 C         1.107122   0.917122   -10.474219 C.ar        1 UNL1     0.0753
     13 C         1.007589   0.916303   -9.046388 C.ar        1 UNL1     0.0305
     14 C         2.113737   0.469778   -8.202527 C.2        1 UNL1     0.0924
     15 N         4.273406   0.252746   -7.87381 N.pl3        1 UNL1     -0.3170
     16 C         3.586459   -0.148978   -6.675071 C.3        1 UNL1     0.1275
     17 N         2.163755   0.309655   -6.883138 N.2        1 UNL1     -0.2557
     18 C         3.543069   -1.674027   -6.668285 C.3        1 UNL1     0.0016
     19 C         4.964312   -2.201509   -6.784134 C.3        1 UNL1     0.0026
     20 N         5.744213   -1.694537   -5.663527 N.3        1 UNL1     -0.3018
     21 C         5.793516   -0.235415   -5.549952 C.3        1 UNL1     0.0026
     22 C         4.355676   0.272654   -5.430049 C.3        1 UNL1     0.0016
     23 C         7.017929   -2.369279   -5.511819 C.3        1 UNL1     0.0012
     24 C         6.98396   -3.74443   -6.197066 C.3        1 UNL1     -0.0339
     25 C         7.356549   -4.869945   -5.218062 C.3        1 UNL1     -0.0615
     26 C         5.621761   -3.979164   -6.826425 C.3        1 UNL1     -0.0615
     27 C         0.010043   1.228354   -11.274014 C.ar        1 UNL1     0.1347
     28 C         -1.243435   1.514984   -10.76344 C.ar        1 UNL1     0.0342
     29 C         -1.305508   1.556149   -9.354321 C.ar        1 UNL1     0.1435
     30 C         -0.205865   1.282048   -8.540151 C.ar        1 UNL1     0.0774
     31 O         -2.479654   1.713108   -8.704899 O.3        1 UNL1     -0.4436
     32 C         -2.224512   1.238147   -7.374415 C.3        1 UNL1     0.3143
     33 C         -0.725336   1.360495   -7.190795 C.2        1 UNL1     0.2504
     34 C         -2.517553   1.610057   -11.555705 C.3        1 UNL1     -0.0327
     35 O         -2.832997   2.165389   -6.467099 O.2        1 UNL1     -0.4528
     36 C         -3.813243   0.139403   -3.410535 C.3        1 UNL1     0.0854
     37 C         -2.908696   -0.747611   -2.471108 C.3        1 UNL1     0.0236
     38 C         -2.980311   -0.37274   -0.913517 C.3        1 UNL1     0.1131
     39 C         -2.778408   1.128334   -0.45714 C.3        1 UNL1     0.0200
     40 C         -1.567702   2.05963   -1.127453 C.3        1 UNL1     0.0661
     41 C         0.060656   1.610397   -1.283176 C.3        1 UNL1     0.0091
     42 C         1.296874   2.04304   -2.567695 C.3        1 UNL1     0.0661
     43 C         2.393576   0.488329   -11.077072 C.2        1 UNL1     0.2131
     44 O         2.497482   0.073745   -12.217274 O.2        1 UNL1     -0.2851
     45 O         0.203261   1.250941   -12.653723 O.3        1 UNL1     -0.5056
     46 O         -0.101755   1.511254   -6.164017 O.2        1 UNL1     -0.2836
     47 C         1.820023   4.519531   -3.410975 C.3        1 UNL1     -0.0566
     48 O         2.357889   2.390479   -1.591657 O.3        1 UNL1     -0.3909
     49 C         0.182262   0.123093   -1.036942 C.3        1 UNL1     -0.0577
     50 O         -2.013314   2.680962   -2.316191 O.3        1 UNL1     -0.3910
     51 O         -4.430703   1.250592   -2.801081 O.3        1 UNL1     -0.3753
     52 C         -1.568901   -1.153532   -3.167618 C.3        1 UNL1     -0.0564
     53 O         -2.403945   -1.427492   -0.014837 O.3        1 UNL1     -0.4608
     54 C         -2.175393   -2.732462   -0.365191 C.2        1 UNL1     0.3042
     55 O         -2.959888   -3.50777   -0.910447 O.2        1 UNL1     -0.2512
     56 C         -0.775853   -3.196205   -0.07719 C.3        1 UNL1     0.0332
     57 C         -4.228599   1.786216   -0.307761 C.3        1 UNL1     -0.0567
     58 C         -2.607798   -0.260021   -7.363774 C.3        1 UNL1     0.0210
     59 C         -4.801809   2.29661   -3.697737 C.3        1 UNL1     0.0372
     60 C         -3.140413   0.642524   -4.639082 C.2        1 UNL1     -0.0208
     61 C         -3.150984   1.854417   -5.195813 C.2        1 UNL1     0.0882
     62 H         1.046334   2.874539   -4.542224 H        1 UNL1     0.0365
     63 H         2.076466   3.034492   -6.298206 H        1 UNL1     0.0576
     64 H         5.101421   3.332411   -5.7906 H        1 UNL1     0.0615
     65 H         3.399135   3.055324   -8.395077 H        1 UNL1     0.0622
     66 H         -4.602905   -0.542073   -3.757047 H        1 UNL1     0.0645
     67 H         -3.399692   -1.736231   -2.481715 H        1 UNL1     0.0362
     68 H         -4.040244   -0.596805   -0.71894 H        1 UNL1     0.0741
     69 H         -2.532181   1.141714   0.596236 H        1 UNL1     0.0359
     70 H         -1.525335   2.880003   -0.385663 H        1 UNL1     0.0600
     71 H         0.46568   2.020793   -0.337402 H        1 UNL1     0.0348
     72 H         0.501941   2.798961   -2.645039 H        1 UNL1     0.0602
     73 H         -2.694096   -0.173076   -5.151766 H        1 UNL1     0.0628
     74 H         -3.535696   2.752356   -4.711108 H        1 UNL1     0.1022
     75 H         7.442755   3.562903   -8.795741 H        1 UNL1     0.0279
     76 H         7.418117   1.844568   -8.791423 H        1 UNL1     0.0279
     77 H         7.15559   2.801172   -10.305123 H        1 UNL1     0.0279
     78 H         5.479018   0.450933   -9.951992 H        1 UNL1     0.1553
     79 H         5.255331   0.101213   -8.014498 H        1 UNL1     0.1484
     80 H         3.063936   -2.013947   -5.742191 H        1 UNL1     0.0317
     81 H         2.931361   -2.051753   -7.494595 H        1 UNL1     0.0317
     82 H         5.424405   -1.924507   -7.74408 H        1 UNL1     0.0428
     83 H         4.910047   -3.290583   -6.77921 H        1 UNL1     0.0428
     84 H         6.317727   0.117529   -4.656394 H        1 UNL1     0.0428
     85 H         6.347492   0.220875   -6.381954 H        1 UNL1     0.0428
     86 H         4.436369   1.322257   -5.216013 H        1 UNL1     0.0317
     87 H         3.888199   -0.135578   -4.525666 H        1 UNL1     0.0317
     88 H         7.789032   -1.756248   -5.996472 H        1 UNL1     0.0429
     89 H         7.29733   -2.460623   -4.454291 H        1 UNL1     0.0429
     90 H         7.701867   -3.750612   -7.025791 H        1 UNL1     0.0308
     91 H         8.378428   -4.751023   -4.845607 H        1 UNL1     0.0233
     92 H         6.666289   -4.889748   -4.371446 H        1 UNL1     0.0233
     93 H         7.300397   -5.862295   -5.681661 H        1 UNL1     0.0233
     94 H         5.377536   -5.046851   -6.811087 H        1 UNL1     0.0233
     95 H         4.851688   -3.449011   -6.259075 H        1 UNL1     0.0233
     96 H         5.596583   -3.633779   -7.86375 H        1 UNL1     0.0233
     97 H         -3.337548   2.004225   -10.962854 H        1 UNL1     0.0280
     98 H         -2.419568   2.28265   -12.417839 H        1 UNL1     0.0280
     99 H         -2.802819   0.60861   -11.917398 H        1 UNL1     0.0280
     100 H         0.787177   1.924066   -12.956325 H        1 UNL1     0.2922
     101 H         2.805528   4.928163   -3.188589 H        1 UNL1     0.0236
     102 H         1.151235   4.574618   -2.552679 H        1 UNL1     0.0236
     103 H         1.388214   5.216139   -4.148859 H        1 UNL1     0.0236
     104 H         2.671936   3.290843   -1.805411 H        1 UNL1     0.2098
     105 H         -0.54211   -0.482114   -1.57622 H        1 UNL1     0.0234
     106 H         1.185935   -0.280116   -1.171066 H        1 UNL1     0.0234
     107 H         0.0   0.0   0.0 H        1 UNL1     0.0234
     108 H         -1.333552   3.332507   -2.575383 H        1 UNL1     0.2098
     109 H         -0.771651   -0.416561   -2.997389 H        1 UNL1     0.0234
     110 H         -1.216388   -2.148676   -2.875785 H        1 UNL1     0.0234
     111 H         -1.683642   -1.220848   -4.257687 H        1 UNL1     0.0234
     112 H         -0.801543   -4.171105   0.419052 H        1 UNL1     0.0342
     113 H         -0.16292   -3.231631   -0.97658 H        1 UNL1     0.0342
     114 H         -0.312023   -2.478763   0.613681 H        1 UNL1     0.0342
     115 H         -4.188819   2.74551   0.22643 H        1 UNL1     0.0234
     116 H         -4.737088   1.960422   -1.258098 H        1 UNL1     0.0234
     117 H         -4.908865   1.208742   0.341626 H        1 UNL1     0.0234
     118 H         -2.874059   -0.612676   -6.35197 H        1 UNL1     0.0309
     119 H         -3.423873   -0.499608   -8.052847 H        1 UNL1     0.0309
     120 H         -1.7721   -0.909728   -7.645901 H        1 UNL1     0.0309
     121 H         -3.926288   2.542298   -4.298117 H        1 UNL1     0.0524
     122 H         -5.603455   1.989543   -4.389915 H        1 UNL1     0.0524
     123 H         -5.131602   3.169327   -3.141234 H        1 UNL1     0.0524
@<TRIPOS>BOND
     1     1     2    1
     2     1    42    1
     3     2     3    2
     4     3     4    1
     5     4     5    2
     6     5     7    1
     7     6    75    1
     8     6    76    1
     9     6    77    1
    10     7     9   am
    11     9    10    1
    12    10    11    2
    13    10    43    1
    14    11    14    1
    15    11    15    1
    16    12    13   ar
    17    12    27   ar
    18    12    43    1
    19    13    14    1
    20    13    30   ar
    21    14    17    2
    22    15    16    1
    23    16    17    1
    24    16    18    1
    25    16    22    1
    26    18    19    1
    27    19    20    1
    28    20    21    1
    29    21    22    1
    30    23    24    1
    31    23    88    1
    32    23    89    1
    33    24    25    1
    34    24    26    1
    35    24    90    1
    36    25    91    1
    37    25    92    1
    38    25    93    1
    39    26    94    1
    40    26    95    1
    41    26    96    1
    42    27    28   ar
    43    28    29   ar
    44    29    30   ar
    45    29    31    1
    46    30    33    1
    47    31    32    1
    48    32    33    1
    49    32    35    1
    50    34    97    1
    51    34    98    1
    52    34    99    1
    53    35    61    1
    54    36    37    1
    55    36    60    1
    56    37    38    1
    57    38    39    1
    58    39    40    1
    59    40    41    1
    60    41    42    1
    61    45   100    1
    62    47   101    1
    63    47   102    1
    64    47   103    1
    65    48   104    1
    66    49   105    1
    67    49   106    1
    68    49   107    1
    69    50   108    1
    70    51    59    1
    71    52   109    1
    72    52   110    1
    73    52   111    1
    74    53    54    1
    75    54    55    2
    76    54    56    1
    77    56   112    1
    78    56   113    1
    79    56   114    1
    80    57   115    1
    81    57   116    1
    82    57   117    1
    83    58   118    1
    84    58   119    1
    85    58   120    1
    86    59   121    1
    87    59   122    1
    88    59   123    1
    89    60    61    2
    90     1    47    1
    91     1    62    1
    92     2    63    1
    93     3    64    1
    94     4    65    1
    95     5     6    1
    96     7     8    2
    97     9    78    1
    98    15    79    1
    99    18    80    1
   100    18    81    1
   101    19    82    1
   102    19    83    1
   103    20    23    1
   104    21    84    1
   105    21    85    1
   106    22    86    1
   107    22    87    1
   108    27    45    1
   109    28    34    1
   110    32    58    1
   111    33    46    2
   112    36    51    1
   113    36    66    1
   114    37    52    1
   115    37    67    1
   116    38    53    1
   117    38    68    1
   118    42    48    1
   119    42    72    1
   120    43    44    2
   121    60    73    1
   122    61    74    1
   123    39    69    1
   124    39    57    1
   125    40    70    1
   126    40    50    1
   127    41    71    1
   128    41    49    1
