@<TRIPOS>MOLECULE
*****
 123 128 0 0 0
SMALL
GASTEIGER

@<TRIPOS>ATOM
     1 C         5.166785   1.758778   0.458584 C.3        1 UNL1     0.0009
     2 C         6.596656   2.567235   -0.401011 C.2        1 UNL1     -0.0787
     3 C         7.874576   2.471186   -1.074613 C.2        1 UNL1     -0.0649
     4 C         8.744992   3.707641   -1.836134 C.2        1 UNL1     -0.0542
     5 C         9.758637   4.001809   -2.781156 C.2        1 UNL1     0.0115
     6 C         10.882643   3.378125   -3.653482 C.3        1 UNL1     -0.0348
     7 C         9.847412   5.48498   -3.388866 C.2        1 UNL1     0.2441
     8 O         10.672058   6.308348   -3.016642 O.2        1 UNL1     -0.2702
     9 N         9.089573   5.690019   -4.554966 N.am        1 UNL1     -0.2772
     10 C         7.808093   6.074409   -4.233446 C.2        1 UNL1     0.1049
     11 C         6.965971   5.101524   -3.935876 C.2        1 UNL1     0.0801
     12 C         6.51541   7.679212   -2.815381 C.ar        1 UNL1     0.0753
     13 C         5.761273   6.550057   -2.362729 C.ar        1 UNL1     0.0305
     14 C         5.876683   5.2443   -3.008275 C.2        1 UNL1     0.0924
     15 N         7.090123   3.772711   -4.095159 N.pl3        1 UNL1     -0.3170
     16 C         5.823368   3.171276   -3.77288 C.3        1 UNL1     0.1275
     17 N         5.191233   4.12573   -2.789445 N.2        1 UNL1     -0.2557
     18 C         4.96261   3.228184   -5.031276 C.3        1 UNL1     0.0016
     19 C         5.711791   2.545032   -6.164245 C.3        1 UNL1     0.0026
     20 N         5.986924   1.167611   -5.779483 N.3        1 UNL1     -0.3018
     21 C         6.758235   1.0092   -4.544835 C.3        1 UNL1     0.0026
     22 C         5.985131   1.698732   -3.419335 C.3        1 UNL1     0.0016
     23 C         6.426111   0.348434   -6.891556 C.3        1 UNL1     0.0012
     24 C         5.265088   0.096346   -7.866356 C.3        1 UNL1     -0.0339
     25 C         5.350878   1.018591   -9.093613 C.3        1 UNL1     -0.0615
     26 C         5.231435   -1.367827   -8.268656 C.3        1 UNL1     -0.0615
     27 C         6.31169   8.946751   -2.275047 C.ar        1 UNL1     0.1347
     28 C         5.35808   9.214903   -1.309245 C.ar        1 UNL1     0.0342
     29 C         4.66153   8.079328   -0.844 C.ar        1 UNL1     0.1435
     30 C         4.88027   6.797498   -1.350245 C.ar        1 UNL1     0.0774
     31 O         3.625626   8.191298   0.015868 O.3        1 UNL1     -0.4436
     32 C         2.905419   6.957053   -0.121299 C.3        1 UNL1     0.3143
     33 C         3.917283   5.965634   -0.659287 C.2        1 UNL1     0.2504
     34 C         4.911389   10.580352   -0.866394 C.3        1 UNL1     -0.0327
     35 O         2.553764   6.520249   1.197334 O.2        1 UNL1     -0.4528
     36 C         -0.688009   4.581757   0.821514 C.3        1 UNL1     0.0854
     37 C         -0.996477   3.320203   -0.073389 C.3        1 UNL1     0.0236
     38 C         -1.589752   2.058373   0.718793 C.3        1 UNL1     0.1131
     39 C         -0.854945   1.529387   2.015906 C.3        1 UNL1     0.0200
     40 C         0.806743   1.387002   2.046847 C.3        1 UNL1     0.0661
     41 C         1.76031   0.619471   0.872446 C.3        1 UNL1     0.0091
     42 C         3.463682   0.985007   0.29772 C.3        1 UNL1     0.0661
     43 C         7.458883   7.472811   -3.942109 C.2        1 UNL1     0.2131
     44 O         7.852606   8.371325   -4.663491 O.2        1 UNL1     -0.2851
     45 O         7.11914   9.98319   -2.739007 O.3        1 UNL1     -0.5056
     46 O         3.936361   4.76219   -0.52809 O.2        1 UNL1     -0.2836
     47 C         5.572862   1.330692   1.89449 C.3        1 UNL1     -0.0566
     48 O         3.915414   -0.425211   0.377338 O.3        1 UNL1     -0.3909
     49 C         0.918899   0.384751   -0.362231 C.3        1 UNL1     -0.0577
     50 O         1.407057   2.606172   2.435396 O.3        1 UNL1     -0.3910
     51 O         -0.803116   4.392471   2.213761 O.3        1 UNL1     -0.3753
     52 C         0.041119   3.16119   -1.232293 C.3        1 UNL1     -0.0564
     53 O         -2.195951   1.017849   -0.17684 O.3        1 UNL1     -0.4608
     54 C         -2.394629   -0.297276   0.153165 C.2        1 UNL1     0.3042
     55 O         -1.812655   -1.278872   -0.306851 O.2        1 UNL1     -0.2512
     56 C         -3.408867   -0.497203   1.243148 C.3        1 UNL1     0.0332
     57 C         -1.569408   2.197583   3.281303 C.3        1 UNL1     -0.0567
     58 C         1.823064   7.199624   -1.198887 C.3        1 UNL1     0.0210
     59 C         -1.11395   5.571215   2.955252 C.3        1 UNL1     0.0372
     60 C         0.638339   5.213247   0.582388 C.2        1 UNL1     -0.0208
     61 C         1.555821   5.650596   1.445927 C.2        1 UNL1     0.0882
     62 H         4.689555   2.742089   0.548368 H        1 UNL1     0.0365
     63 H         6.329074   3.620578   -0.294521 H        1 UNL1     0.0576
     64 H         8.332679   1.505103   -1.298068 H        1 UNL1     0.0615
     65 H         8.258339   4.622272   -1.486705 H        1 UNL1     0.0622
     66 H         -1.435979   5.326737   0.515585 H        1 UNL1     0.0645
     67 H         -1.866382   3.627657   -0.67944 H        1 UNL1     0.0362
     68 H         -2.535448   2.493619   1.076204 H        1 UNL1     0.0741
     69 H         -1.183337   0.517753   2.213807 H        1 UNL1     0.0359
     70 H         0.925229   0.727284   2.927638 H        1 UNL1     0.0600
     71 H         1.80847   -0.401416   1.299562 H        1 UNL1     0.0348
     72 H         3.362955   1.473457   1.277815 H        1 UNL1     0.0602
     73 H         0.749431   5.410247   -0.454963 H        1 UNL1     0.0628
     74 H         1.545309   5.440386   2.515945 H        1 UNL1     0.1022
     75 H         10.911421   2.269566   -3.521943 H        1 UNL1     0.0279
     76 H         10.775565   3.4835   -4.730747 H        1 UNL1     0.0279
     77 H         11.890086   3.662693   -3.316169 H        1 UNL1     0.0279
     78 H         9.025963   4.819716   -5.078992 H        1 UNL1     0.1553
     79 H         7.752358   3.345695   -4.716475 H        1 UNL1     0.1484
     80 H         4.003481   2.735526   -4.830962 H        1 UNL1     0.0317
     81 H         4.732366   4.264384   -5.301329 H        1 UNL1     0.0317
     82 H         6.639891   3.077975   -6.418238 H        1 UNL1     0.0428
     83 H         5.081015   2.598587   -7.05211 H        1 UNL1     0.0428
     84 H         6.882441   -0.033382   -4.235953 H        1 UNL1     0.0428
     85 H         7.786966   1.379128   -4.655207 H        1 UNL1     0.0428
     86 H         6.50765   1.44976   -2.514363 H        1 UNL1     0.0317
     87 H         5.007386   1.219306   -3.287957 H        1 UNL1     0.0317
     88 H         7.217862   0.89149   -7.424017 H        1 UNL1     0.0429
     89 H         6.862661   -0.59636   -6.542898 H        1 UNL1     0.0429
     90 H         4.316001   0.287432   -7.351639 H        1 UNL1     0.0308
     91 H         6.303209   0.895293   -9.617983 H        1 UNL1     0.0233
     92 H         4.530987   0.816428   -9.786806 H        1 UNL1     0.0233
     93 H         5.270265   2.079015   -8.825587 H        1 UNL1     0.0233
     94 H         4.549719   -1.511717   -9.113875 H        1 UNL1     0.0233
     95 H         6.228081   -1.692679   -8.580316 H        1 UNL1     0.0233
     96 H         4.896054   -2.001048   -7.44251 H        1 UNL1     0.0233
     97 H         4.116416   10.529536   -0.12838 H        1 UNL1     0.0280
     98 H         5.723591   11.148661   -0.394578 H        1 UNL1     0.0280
     99 H         4.540047   11.147171   -1.735828 H        1 UNL1     0.0280
     100 H         6.648924   10.737448   -3.048223 H        1 UNL1     0.2922
     101 H         4.710883   0.90707   2.40946 H        1 UNL1     0.0236
     102 H         6.036778   2.133794   2.466148 H        1 UNL1     0.0236
     103 H         6.321445   0.520886   1.889096 H        1 UNL1     0.0236
     104 H         4.335235   -0.551586   1.250693 H        1 UNL1     0.2098
     105 H         0.700998   1.282913   -0.934625 H        1 UNL1     0.0234
     106 H         1.285699   -0.402876   -1.02028 H        1 UNL1     0.0234
     107 H         0.0   -0.0   0.0 H        1 UNL1     0.0234
     108 H         1.217943   3.259086   1.734178 H        1 UNL1     0.2098
     109 H         1.06993   3.062222   -0.858842 H        1 UNL1     0.0234
     110 H         -0.187246   2.32574   -1.902827 H        1 UNL1     0.0234
     111 H         0.047766   4.03849   -1.892783 H        1 UNL1     0.0234
     112 H         -3.504042   -1.562994   1.472011 H        1 UNL1     0.0342
     113 H         -3.166655   0.074418   2.137813 H        1 UNL1     0.0342
     114 H         -4.381932   -0.143505   0.875441 H        1 UNL1     0.0342
     115 H         -2.640896   1.957466   3.319328 H        1 UNL1     0.0234
     116 H         -1.134131   1.909578   4.24028 H        1 UNL1     0.0234
     117 H         -1.599459   3.299938   3.238274 H        1 UNL1     0.0234
     118 H         0.921795   7.680784   -0.780312 H        1 UNL1     0.0309
     119 H         2.18478   7.791802   -2.045462 H        1 UNL1     0.0309
     120 H         1.436926   6.266855   -1.624264 H        1 UNL1     0.0309
     121 H         -0.277894   6.261056   2.843512 H        1 UNL1     0.0524
     122 H         -2.016186   6.078762   2.575245 H        1 UNL1     0.0524
     123 H         -1.261508   5.327785   4.003614 H        1 UNL1     0.0524
@<TRIPOS>BOND
     1     1     2    1
     2     1    42    1
     3     2     3    2
     4     3     4    1
     5     4     5    2
     6     5     7    1
     7     6    75    1
     8     6    76    1
     9     6    77    1
    10     7     9   am
    11     9    10    1
    12    10    11    2
    13    10    43    1
    14    11    14    1
    15    11    15    1
    16    12    13   ar
    17    12    27   ar
    18    12    43    1
    19    13    14    1
    20    13    30   ar
    21    14    17    2
    22    15    16    1
    23    16    17    1
    24    16    18    1
    25    16    22    1
    26    18    19    1
    27    19    20    1
    28    20    21    1
    29    21    22    1
    30    23    24    1
    31    23    88    1
    32    23    89    1
    33    24    25    1
    34    24    26    1
    35    24    90    1
    36    25    91    1
    37    25    92    1
    38    25    93    1
    39    26    94    1
    40    26    95    1
    41    26    96    1
    42    27    28   ar
    43    28    29   ar
    44    29    30   ar
    45    29    31    1
    46    30    33    1
    47    31    32    1
    48    32    33    1
    49    32    35    1
    50    34    97    1
    51    34    98    1
    52    34    99    1
    53    35    61    1
    54    36    37    1
    55    36    60    1
    56    37    38    1
    57    38    39    1
    58    39    40    1
    59    40    41    1
    60    41    42    1
    61    45   100    1
    62    47   101    1
    63    47   102    1
    64    47   103    1
    65    48   104    1
    66    49   105    1
    67    49   106    1
    68    49   107    1
    69    50   108    1
    70    51    59    1
    71    52   109    1
    72    52   110    1
    73    52   111    1
    74    53    54    1
    75    54    55    2
    76    54    56    1
    77    56   112    1
    78    56   113    1
    79    56   114    1
    80    57   115    1
    81    57   116    1
    82    57   117    1
    83    58   118    1
    84    58   119    1
    85    58   120    1
    86    59   121    1
    87    59   122    1
    88    59   123    1
    89    60    61    2
    90     1    47    1
    91     1    62    1
    92     2    63    1
    93     3    64    1
    94     4    65    1
    95     5     6    1
    96     7     8    2
    97     9    78    1
    98    15    79    1
    99    18    80    1
   100    18    81    1
   101    19    82    1
   102    19    83    1
   103    20    23    1
   104    21    84    1
   105    21    85    1
   106    22    86    1
   107    22    87    1
   108    27    45    1
   109    28    34    1
   110    32    58    1
   111    33    46    2
   112    36    51    1
   113    36    66    1
   114    37    52    1
   115    37    67    1
   116    38    53    1
   117    38    68    1
   118    42    48    1
   119    42    72    1
   120    43    44    2
   121    60    73    1
   122    61    74    1
   123    39    69    1
   124    39    57    1
   125    40    70    1
   126    40    50    1
   127    41    71    1
   128    41    49    1
