@<TRIPOS>MOLECULE
*****
 123 128 0 0 0
SMALL
GASTEIGER

@<TRIPOS>ATOM
     1 C         0.034098   4.075414   -0.764313 C.3        1 UNL1     0.0009
     2 C         -0.869741   4.973926   -2.11071 C.2        1 UNL1     -0.0787
     3 C         -0.878084   5.60401   -3.414156 C.2        1 UNL1     -0.0649
     4 C         -2.205698   6.22632   -4.260636 C.2        1 UNL1     -0.0542
     5 C         -2.696092   6.60637   -5.534274 C.2        1 UNL1     0.0115
     6 C         -2.290392   6.862504   -7.011815 C.3        1 UNL1     -0.0348
     7 C         -4.280644   6.755752   -5.743721 C.2        1 UNL1     0.2441
     8 O         -4.84894   7.838693   -5.772055 O.2        1 UNL1     -0.2702
     9 N         -4.934149   5.580123   -6.152353 N.am        1 UNL1     -0.2772
     10 C         -5.313524   4.836594   -5.058479 C.2        1 UNL1     0.1049
     11 C         -4.384391   4.059261   -4.532467 C.2        1 UNL1     0.0801
     12 C         -6.475165   5.00798   -2.849735 C.ar        1 UNL1     0.0753
     13 C         -5.339339   4.34151   -2.289089 C.ar        1 UNL1     0.0305
     14 C         -4.317142   3.729029   -3.134683 C.2        1 UNL1     0.0924
     15 N         -3.178345   3.709114   -5.011401 N.pl3        1 UNL1     -0.3170
     16 C         -2.631082   2.708121   -4.134605 C.3        1 UNL1     0.1275
     17 N         -3.262117   2.994389   -2.79387 N.2        1 UNL1     -0.2557
     18 C         -3.186304   1.360261   -4.584831 C.3        1 UNL1     0.0016
     19 C         -2.847982   1.161038   -6.053654 C.3        1 UNL1     0.0026
     20 N         -1.401018   1.210735   -6.211298 N.3        1 UNL1     -0.3018
     21 C         -0.767196   2.446743   -5.747699 C.3        1 UNL1     0.0026
     22 C         -1.116323   2.624617   -4.269063 C.3        1 UNL1     0.0016
     23 C         -0.958477   0.73841   -7.508105 C.3        1 UNL1     0.0012
     24 C         -0.589036   -0.751824   -7.441234 C.3        1 UNL1     -0.0339
     25 C         0.578302   -1.084714   -8.38493 C.3        1 UNL1     -0.0615
     26 C         -0.279591   -1.147849   -6.00799 C.3        1 UNL1     -0.0615
     27 C         -7.505061   5.482987   -2.041155 C.ar        1 UNL1     0.1347
     28 C         -7.529489   5.31577   -0.668023 C.ar        1 UNL1     0.0342
     29 C         -6.377825   4.700233   -0.133281 C.ar        1 UNL1     0.1435
     30 C         -5.321739   4.251637   -0.927425 C.ar        1 UNL1     0.0774
     31 O         -6.298924   4.367687   1.173698 O.3        1 UNL1     -0.4436
     32 C         -5.256903   3.382131   1.234879 C.3        1 UNL1     0.3143
     33 C         -4.406205   3.628203   0.005256 C.2        1 UNL1     0.2504
     34 C         -8.707376   5.571385   0.2305 C.3        1 UNL1     -0.0327
     35 O         -4.443914   3.6919   2.37345 O.2        1 UNL1     -0.4528
     36 C         -3.067114   0.374968   3.602463 C.3        1 UNL1     0.0854
     37 C         -2.210621   -0.697551   2.825518 C.3        1 UNL1     0.0236
     38 C         -0.8219   -1.089348   3.525299 C.3        1 UNL1     0.1131
     39 C         0.176767   0.049824   3.980514 C.3        1 UNL1     0.0200
     40 C         0.483253   1.352333   2.984534 C.3        1 UNL1     0.0661
     41 C         0.906996   1.270688   1.34399 C.3        1 UNL1     0.0091
     42 C         0.540023   2.419414   -0.038458 C.3        1 UNL1     0.0661
     43 C         -6.563067   5.097404   -4.32843 C.2        1 UNL1     0.2131
     44 O         -7.606944   5.268843   -4.931478 O.2        1 UNL1     -0.2851
     45 O         -8.55243   6.160519   -2.661965 O.3        1 UNL1     -0.5056
     46 O         -3.231676   3.384887   -0.159464 O.2        1 UNL1     -0.2836
     47 C         0.951981   5.054785   0.015626 C.3        1 UNL1     -0.0566
     48 O         1.933784   2.436729   -0.544667 O.3        1 UNL1     -0.3909
     49 C         0.635158   -0.128741   0.83882 C.3        1 UNL1     -0.0577
     50 O         -0.472939   2.373456   3.186342 O.3        1 UNL1     -0.3910
     51 O         -2.438779   0.980636   4.709619 O.3        1 UNL1     -0.3753
     52 C         -2.344451   -0.537441   1.275871 C.3        1 UNL1     -0.0564
     53 O         -0.202169   -2.339181   2.971967 O.3        1 UNL1     -0.4608
     54 C         1.039495   -2.821042   3.29447 C.2        1 UNL1     0.3042
     55 O         2.067953   -2.743995   2.623517 O.2        1 UNL1     -0.2512
     56 C         1.103764   -3.455372   4.654694 C.3        1 UNL1     0.0332
     57 C         -0.100179   0.343898   5.528091 C.3        1 UNL1     -0.0567
     58 C         -5.94801   2.005673   1.096076 C.3        1 UNL1     0.0210
     59 C         -3.329106   1.454428   5.718927 C.3        1 UNL1     0.0372
     60 C         -3.60915   1.476439   2.760965 C.2        1 UNL1     -0.0208
     61 C         -3.643141   2.792213   2.976204 C.2        1 UNL1     0.0882
     62 H         -0.905401   4.012175   -0.202126 H        1 UNL1     0.0365
     63 H         -1.848885   5.105975   -1.645618 H        1 UNL1     0.0576
     64 H         -0.000978   5.584779   -4.064866 H        1 UNL1     0.0615
     65 H         -2.99552   6.276508   -3.506219 H        1 UNL1     0.0622
     66 H         -3.94081   -0.182244   3.968819 H        1 UNL1     0.0645
     67 H         -2.785336   -1.633139   2.939261 H        1 UNL1     0.0362
     68 H         -1.204219   -1.531947   4.457748 H        1 UNL1     0.0741
     69 H         1.159459   -0.382164   4.11509 H        1 UNL1     0.0359
     70 H         1.406109   1.740349   3.456595 H        1 UNL1     0.0600
     71 H         2.011286   1.259726   1.429905 H        1 UNL1     0.0348
     72 H         0.397115   3.000108   0.88441 H        1 UNL1     0.0602
     73 H         -4.127347   1.060659   1.932805 H        1 UNL1     0.0628
     74 H         -3.091866   3.302147   3.766964 H        1 UNL1     0.1022
     75 H         -2.960198   6.299331   -7.705522 H        1 UNL1     0.0279
     76 H         -2.386937   7.884549   -7.371221 H        1 UNL1     0.0279
     77 H         -1.308783   6.434968   -7.263525 H        1 UNL1     0.0279
     78 H         -4.297709   5.0094   -6.70489 H        1 UNL1     0.1553
     79 H         -2.919065   3.785958   -5.977736 H        1 UNL1     0.1484
     80 H         -2.751466   0.568643   -3.962719 H        1 UNL1     0.0317
     81 H         -4.270661   1.314762   -4.437354 H        1 UNL1     0.0317
     82 H         -3.341467   1.910051   -6.690337 H        1 UNL1     0.0428
     83 H         -3.254593   0.195009   -6.354495 H        1 UNL1     0.0428
     84 H         0.325656   2.426852   -5.803284 H        1 UNL1     0.0428
     85 H         -1.050225   3.308687   -6.36759 H        1 UNL1     0.0428
     86 H         -0.531282   3.4601   -3.931892 H        1 UNL1     0.0317
     87 H         -0.718598   1.78468   -3.686469 H        1 UNL1     0.0317
     88 H         -1.787281   0.861522   -8.217487 H        1 UNL1     0.0429
     89 H         -0.120069   1.33766   -7.885924 H        1 UNL1     0.0429
     90 H         -1.458515   -1.351032   -7.73648 H        1 UNL1     0.0308
     91 H         1.38568   -0.352095   -8.292659 H        1 UNL1     0.0233
     92 H         0.972824   -2.08158   -8.174649 H        1 UNL1     0.0233
     93 H         0.274375   -1.092149   -9.438689 H        1 UNL1     0.0233
     94 H         0.339178   -2.051549   -5.991042 H        1 UNL1     0.0233
     95 H         0.277531   -0.348457   -5.511452 H        1 UNL1     0.0233
     96 H         -1.194398   -1.344747   -5.442015 H        1 UNL1     0.0233
     97 H         -8.516261   5.257008   1.252201 H        1 UNL1     0.0280
     98 H         -8.961177   6.638004   0.286755 H        1 UNL1     0.0280
     99 H         -9.583848   5.017197   -0.143356 H        1 UNL1     0.0280
     100 H         -8.306483   6.637614   -3.434955 H        1 UNL1     0.2922
     101 H         1.829345   5.293662   -0.585062 H        1 UNL1     0.0236
     102 H         1.221461   4.69216   1.007023 H        1 UNL1     0.0236
     103 H         0.46275   6.026674   0.195282 H        1 UNL1     0.0236
     104 H         2.084704   1.597426   -1.021912 H        1 UNL1     0.2098
     105 H         1.519919   -0.666143   0.506842 H        1 UNL1     0.0234
     106 H         0.046741   -0.750207   1.513706 H        1 UNL1     0.0234
     107 H         -0.0   0.0   0.0 H        1 UNL1     0.0234
     108 H         -0.535046   2.881254   2.354445 H        1 UNL1     0.2098
     109 H         -3.130963   0.178025   0.997989 H        1 UNL1     0.0234
     110 H         -1.404338   -0.255686   0.789513 H        1 UNL1     0.0234
     111 H         -2.620306   -1.484608   0.793456 H        1 UNL1     0.0234
     112 H         2.122765   -3.798699   4.857451 H        1 UNL1     0.0342
     113 H         0.755105   -2.782922   5.437057 H        1 UNL1     0.0342
     114 H         0.445737   -4.335238   4.654383 H        1 UNL1     0.0342
     115 H         -1.009701   -0.159971   5.88316 H        1 UNL1     0.0234
     116 H         0.717488   0.049774   6.189122 H        1 UNL1     0.0234
     117 H         -0.3453   1.399193   5.73835 H        1 UNL1     0.0234
     118 H         -5.991904   1.46494   2.057682 H        1 UNL1     0.0309
     119 H         -6.956654   2.071777   0.675992 H        1 UNL1     0.0309
     120 H         -5.39312   1.320349   0.446049 H        1 UNL1     0.0309
     121 H         -2.826784   2.263661   6.24824 H        1 UNL1     0.0524
     122 H         -4.26179   1.863166   5.295759 H        1 UNL1     0.0524
     123 H         -3.576605   0.652318   6.408462 H        1 UNL1     0.0524
@<TRIPOS>BOND
     1     1     2    1
     2     1    42    1
     3     2     3    2
     4     3     4    1
     5     4     5    2
     6     5     7    1
     7     6    75    1
     8     6    76    1
     9     6    77    1
    10     7     9   am
    11     9    10    1
    12    10    11    2
    13    10    43    1
    14    11    14    1
    15    11    15    1
    16    12    13   ar
    17    12    27   ar
    18    12    43    1
    19    13    14    1
    20    13    30   ar
    21    14    17    2
    22    15    16    1
    23    16    17    1
    24    16    18    1
    25    16    22    1
    26    18    19    1
    27    19    20    1
    28    20    21    1
    29    21    22    1
    30    23    24    1
    31    23    88    1
    32    23    89    1
    33    24    25    1
    34    24    26    1
    35    24    90    1
    36    25    91    1
    37    25    92    1
    38    25    93    1
    39    26    94    1
    40    26    95    1
    41    26    96    1
    42    27    28   ar
    43    28    29   ar
    44    29    30   ar
    45    29    31    1
    46    30    33    1
    47    31    32    1
    48    32    33    1
    49    32    35    1
    50    34    97    1
    51    34    98    1
    52    34    99    1
    53    35    61    1
    54    36    37    1
    55    36    60    1
    56    37    38    1
    57    38    39    1
    58    39    40    1
    59    40    41    1
    60    41    42    1
    61    45   100    1
    62    47   101    1
    63    47   102    1
    64    47   103    1
    65    48   104    1
    66    49   105    1
    67    49   106    1
    68    49   107    1
    69    50   108    1
    70    51    59    1
    71    52   109    1
    72    52   110    1
    73    52   111    1
    74    53    54    1
    75    54    55    2
    76    54    56    1
    77    56   112    1
    78    56   113    1
    79    56   114    1
    80    57   115    1
    81    57   116    1
    82    57   117    1
    83    58   118    1
    84    58   119    1
    85    58   120    1
    86    59   121    1
    87    59   122    1
    88    59   123    1
    89    60    61    2
    90     1    47    1
    91     1    62    1
    92     2    63    1
    93     3    64    1
    94     4    65    1
    95     5     6    1
    96     7     8    2
    97     9    78    1
    98    15    79    1
    99    18    80    1
   100    18    81    1
   101    19    82    1
   102    19    83    1
   103    20    23    1
   104    21    84    1
   105    21    85    1
   106    22    86    1
   107    22    87    1
   108    27    45    1
   109    28    34    1
   110    32    58    1
   111    33    46    2
   112    36    51    1
   113    36    66    1
   114    37    52    1
   115    37    67    1
   116    38    53    1
   117    38    68    1
   118    42    48    1
   119    42    72    1
   120    43    44    2
   121    60    73    1
   122    61    74    1
   123    39    69    1
   124    39    57    1
   125    40    70    1
   126    40    50    1
   127    41    71    1
   128    41    49    1
