@<TRIPOS>MOLECULE
*****
 123 128 0 0 0
SMALL
GASTEIGER

@<TRIPOS>ATOM
     1 C         5.167558   1.755573   0.462144 C.3        1 UNL1     0.0009
     2 C         6.598702   2.562655   -0.396624 C.2        1 UNL1     -0.0787
     3 C         7.877135   2.465424   -1.069083 C.2        1 UNL1     -0.0649
     4 C         8.749024   3.700923   -1.830469 C.2        1 UNL1     -0.0542
     5 C         9.763674   3.99395   -2.774767 C.2        1 UNL1     0.0115
     6 C         10.888012   3.369089   -3.645821 C.3        1 UNL1     -0.0348
     7 C         9.853956   5.476761   -3.383134 C.2        1 UNL1     0.2441
     8 O         10.678828   6.299766   -3.010611 O.2        1 UNL1     -0.2702
     9 N         9.097253   5.681726   -4.549985 N.am        1 UNL1     -0.2772
     10 C         7.815753   6.067126   -4.229753 C.2        1 UNL1     0.1049
     11 C         6.97273   5.094948   -3.932424 C.2        1 UNL1     0.0801
     12 C         6.522921   7.673489   -2.813591 C.ar        1 UNL1     0.0753
     13 C         5.767647   6.545059   -2.361027 C.ar        1 UNL1     0.0305
     14 C         5.882743   5.238906   -3.005828 C.2        1 UNL1     0.0924
     15 N         7.096135   3.765974   -4.090944 N.pl3        1 UNL1     -0.3170
     16 C         5.828706   3.16554   -3.769454 C.3        1 UNL1     0.1275
     17 N         5.196362   4.120901   -2.787033 N.2        1 UNL1     -0.2557
     18 C         4.969064   3.222397   -5.028615 C.3        1 UNL1     0.0016
     19 C         5.718761   2.538186   -6.160604 C.3        1 UNL1     0.0026
     20 N         5.99265   1.160774   -5.774924 N.3        1 UNL1     -0.3018
     21 C         6.762796   1.002462   -4.539537 C.3        1 UNL1     0.0026
     22 C         5.989187   1.693064   -3.415042 C.3        1 UNL1     0.0016
     23 C         6.432245   0.340755   -6.886216 C.3        1 UNL1     0.0012
     24 C         5.27189   0.088955   -7.861885 C.3        1 UNL1     -0.0339
     25 C         5.359345   1.010536   -9.089524 C.3        1 UNL1     -0.0615
     26 C         5.23761   -1.375394   -8.26349 C.3        1 UNL1     -0.0615
     27 C         6.319581   8.941431   -2.274058 C.ar        1 UNL1     0.1347
     28 C         5.365322   9.210693   -1.309207 C.ar        1 UNL1     0.0342
     29 C         4.667619   8.075812   -0.843998 C.ar        1 UNL1     0.1435
     30 C         4.885942   6.793587   -1.349422 C.ar        1 UNL1     0.0774
     31 O         3.631053   8.188895   0.014926 O.3        1 UNL1     -0.4436
     32 C         2.910144   6.955061   -0.122248 C.3        1 UNL1     0.3143
     33 C         3.92181   5.962704   -0.658878 C.2        1 UNL1     0.2504
     34 C         4.91916   10.576658   -0.867415 C.3        1 UNL1     -0.0327
     35 O         2.557069   6.519144   1.196299 O.2        1 UNL1     -0.4528
     36 C         -0.685669   4.582619   0.818658 C.3        1 UNL1     0.0854
     37 C         -0.994207   3.320827   -0.075885 C.3        1 UNL1     0.0236
     38 C         -1.588999   2.059784   0.716412 C.3        1 UNL1     0.1131
     39 C         -0.855656   1.530952   2.014416 C.3        1 UNL1     0.0200
     40 C         0.80591   1.387479   2.046852 C.3        1 UNL1     0.0661
     41 C         1.759973   0.618734   0.873649 C.3        1 UNL1     0.0091
     42 C         3.464079   0.982854   0.300202 C.3        1 UNL1     0.0661
     43 C         7.467223   7.465904   -3.939408 C.2        1 UNL1     0.2131
     44 O         7.862161   8.363798   -4.660896 O.2        1 UNL1     -0.2851
     45 O         7.128117   9.977103   -2.737838 O.3        1 UNL1     -0.5056
     46 O         3.939976   4.759313   -0.52707 O.2        1 UNL1     -0.2836
     47 C         5.572119   1.327929   1.898609 C.3        1 UNL1     -0.0566
     48 O         3.914806   -0.427624   0.380905 O.3        1 UNL1     -0.3909
     49 C         0.919465   0.383961   -0.361633 C.3        1 UNL1     -0.0577
     50 O         1.406701   2.606443   2.435312 O.3        1 UNL1     -0.3910
     51 O         -0.802094   4.394099   2.210899 O.3        1 UNL1     -0.3753
     52 C         0.044276   3.160552   -1.233821 C.3        1 UNL1     -0.0564
     53 O         -2.195122   1.019219   -0.179226 O.3        1 UNL1     -0.4608
     54 C         -2.394956   -0.29561   0.151259 C.2        1 UNL1     0.3042
     55 O         -1.813241   -1.277819   -0.307773 O.2        1 UNL1     -0.2512
     56 C         -3.410261   -0.494324   1.24047 C.3        1 UNL1     0.0332
     57 C         -1.570759   2.200249   3.278869 C.3        1 UNL1     -0.0567
     58 C         1.828875   7.197818   -1.200884 C.3        1 UNL1     0.0210
     59 C         -1.112781   5.573416   2.951541 C.3        1 UNL1     0.0372
     60 C         0.641304   5.21311   0.580357 C.2        1 UNL1     -0.0208
     61 C         1.558335   5.650276   1.444466 C.2        1 UNL1     0.0882
     62 H         4.690904   2.739246   0.551032 H        1 UNL1     0.0365
     63 H         6.331728   3.616228   -0.290885 H        1 UNL1     0.0576
     64 H         8.334787   1.498926   -1.291668 H        1 UNL1     0.0615
     65 H         8.26268   4.616051   -1.48191 H        1 UNL1     0.0622
     66 H         -1.432881   5.327944   0.511719 H        1 UNL1     0.0645
     67 H         -1.863388   3.628558   -0.682834 H        1 UNL1     0.0362
     68 H         -2.534711   2.495835   1.072796 H        1 UNL1     0.0741
     69 H         -1.18489   0.519635   2.212535 H        1 UNL1     0.0359
     70 H         0.923203   0.728118   2.92807 H        1 UNL1     0.0600
     71 H         1.807088   -0.401974   1.30131 H        1 UNL1     0.0348
     72 H         3.362837   1.471856   1.279969 H        1 UNL1     0.0602
     73 H         0.753415   5.409522   -0.456996 H        1 UNL1     0.0628
     74 H         1.546767   5.440603   2.514578 H        1 UNL1     0.1022
     75 H         10.915941   2.260576   -3.513709 H        1 UNL1     0.0279
     76 H         10.781928   3.474001   -4.723229 H        1 UNL1     0.0279
     77 H         11.895355   3.653154   -3.307785 H        1 UNL1     0.0279
     78 H         9.033513   4.811206   -5.073634 H        1 UNL1     0.1553
     79 H         7.758619   3.338211   -4.711481 H        1 UNL1     0.1484
     80 H         4.009437   2.730475   -4.82888 H        1 UNL1     0.0317
     81 H         4.73974   4.258616   -5.299378 H        1 UNL1     0.0317
     82 H         6.647433   3.070388   -6.414064 H        1 UNL1     0.0428
     83 H         5.088783   2.591721   -7.049036 H        1 UNL1     0.0428
     84 H         6.886045   -0.040049   -4.230034 H        1 UNL1     0.0428
     85 H         7.791868   1.371652   -4.64921 H        1 UNL1     0.0428
     86 H         6.510765   1.444193   -2.509499 H        1 UNL1     0.0317
     87 H         5.011011   1.214352   -3.284265 H        1 UNL1     0.0317
     88 H         7.224813   0.883021   -7.418266 H        1 UNL1     0.0429
     89 H         6.867868   -0.604156   -6.536716 H        1 UNL1     0.0429
     90 H         4.32249   0.280926   -7.348077 H        1 UNL1     0.0308
     91 H         6.312044   0.886345   -9.613017 H        1 UNL1     0.0233
     92 H         4.539914   0.808574   -9.783321 H        1 UNL1     0.0233
     93 H         5.279207   2.071145   -8.822092 H        1 UNL1     0.0233
     94 H         4.57824   -1.514889   -9.126977 H        1 UNL1     0.0233
     95 H         6.239814   -1.708544   -8.547323 H        1 UNL1     0.0233
     96 H         4.874616   -2.004918   -7.446237 H        1 UNL1     0.0233
     97 H         4.090741   10.527976   -0.166998 H        1 UNL1     0.0280
     98 H         5.717345   11.125842   -0.351127 H        1 UNL1     0.0280
     99 H         4.59621   11.161021   -1.744523 H        1 UNL1     0.0280
     100 H         6.659385   10.739629   -3.02847 H        1 UNL1     0.2922
     101 H         4.709418   0.905134   2.413049 H        1 UNL1     0.0236
     102 H         6.036079   2.131005   2.470268 H        1 UNL1     0.0236
     103 H         6.320169   0.517623   1.894258 H        1 UNL1     0.0236
     104 H         4.333794   -0.553846   1.254682 H        1 UNL1     0.2098
     105 H         0.702651   1.281984   -0.934658 H        1 UNL1     0.0234
     106 H         1.286305   -0.404235   -1.018978 H        1 UNL1     0.0234
     107 H         0.0   -0.0   0.0 H        1 UNL1     0.0234
     108 H         1.257491   3.246552   1.712979 H        1 UNL1     0.2098
     109 H         1.0727   3.061085   -0.859438 H        1 UNL1     0.0234
     110 H         -0.18407   2.324922   -1.904137 H        1 UNL1     0.0234
     111 H         0.052072   4.03752   -1.894739 H        1 UNL1     0.0234
     112 H         -3.50634   -1.559938   1.469779 H        1 UNL1     0.0342
     113 H         -3.168436   0.077579   2.13506 H        1 UNL1     0.0342
     114 H         -4.382775   -0.140162   0.871755 H        1 UNL1     0.0342
     115 H         -2.642438   1.960863   3.316095 H        1 UNL1     0.0234
     116 H         -1.136495   1.91243   4.238361 H        1 UNL1     0.0234
     117 H         -1.60004   3.302602   3.235269 H        1 UNL1     0.0234
     118 H         0.927567   7.679783   -0.783319 H        1 UNL1     0.0309
     119 H         2.191709   7.789336   -2.047441 H        1 UNL1     0.0309
     120 H         1.442482   6.265095   -1.62613 H        1 UNL1     0.0309
     121 H         -0.27617   6.262646   2.840177 H        1 UNL1     0.0524
     122 H         -2.014352   6.081374   2.570509 H        1 UNL1     0.0524
     123 H         -1.261398   5.330603   3.999896 H        1 UNL1     0.0524
@<TRIPOS>BOND
     1     1     2    1
     2     1    42    1
     3     2     3    2
     4     3     4    1
     5     4     5    2
     6     5     7    1
     7     6    75    1
     8     6    76    1
     9     6    77    1
    10     7     9   am
    11     9    10    1
    12    10    11    2
    13    10    43    1
    14    11    14    1
    15    11    15    1
    16    12    13   ar
    17    12    27   ar
    18    12    43    1
    19    13    14    1
    20    13    30   ar
    21    14    17    2
    22    15    16    1
    23    16    17    1
    24    16    18    1
    25    16    22    1
    26    18    19    1
    27    19    20    1
    28    20    21    1
    29    21    22    1
    30    23    24    1
    31    23    88    1
    32    23    89    1
    33    24    25    1
    34    24    26    1
    35    24    90    1
    36    25    91    1
    37    25    92    1
    38    25    93    1
    39    26    94    1
    40    26    95    1
    41    26    96    1
    42    27    28   ar
    43    28    29   ar
    44    29    30   ar
    45    29    31    1
    46    30    33    1
    47    31    32    1
    48    32    33    1
    49    32    35    1
    50    34    97    1
    51    34    98    1
    52    34    99    1
    53    35    61    1
    54    36    37    1
    55    36    60    1
    56    37    38    1
    57    38    39    1
    58    39    40    1
    59    40    41    1
    60    41    42    1
    61    45   100    1
    62    47   101    1
    63    47   102    1
    64    47   103    1
    65    48   104    1
    66    49   105    1
    67    49   106    1
    68    49   107    1
    69    50   108    1
    70    51    59    1
    71    52   109    1
    72    52   110    1
    73    52   111    1
    74    53    54    1
    75    54    55    2
    76    54    56    1
    77    56   112    1
    78    56   113    1
    79    56   114    1
    80    57   115    1
    81    57   116    1
    82    57   117    1
    83    58   118    1
    84    58   119    1
    85    58   120    1
    86    59   121    1
    87    59   122    1
    88    59   123    1
    89    60    61    2
    90     1    47    1
    91     1    62    1
    92     2    63    1
    93     3    64    1
    94     4    65    1
    95     5     6    1
    96     7     8    2
    97     9    78    1
    98    15    79    1
    99    18    80    1
   100    18    81    1
   101    19    82    1
   102    19    83    1
   103    20    23    1
   104    21    84    1
   105    21    85    1
   106    22    86    1
   107    22    87    1
   108    27    45    1
   109    28    34    1
   110    32    58    1
   111    33    46    2
   112    36    51    1
   113    36    66    1
   114    37    52    1
   115    37    67    1
   116    38    53    1
   117    38    68    1
   118    42    48    1
   119    42    72    1
   120    43    44    2
   121    60    73    1
   122    61    74    1
   123    39    69    1
   124    39    57    1
   125    40    70    1
   126    40    50    1
   127    41    71    1
   128    41    49    1
