@<TRIPOS>MOLECULE
*****
 123 128 0 0 0
SMALL
GASTEIGER

@<TRIPOS>ATOM
     1 C         1.294505   3.521824   3.232664 C.3        1 UNL1     0.0009
     2 C         1.192492   5.356581   3.478223 C.2        1 UNL1     -0.0787
     3 C         1.691859   6.689163   3.211945 C.2        1 UNL1     -0.0649
     4 C         1.022579   8.167151   3.695651 C.2        1 UNL1     -0.0542
     5 C         0.981743   9.560824   3.444483 C.2        1 UNL1     0.0115
     6 C         1.652055   10.714432   2.648747 C.3        1 UNL1     -0.0348
     7 C         -0.237687   10.421339   4.035662 C.2        1 UNL1     0.2441
     8 O         -0.134589   11.124929   5.031081 O.2        1 UNL1     -0.2702
     9 N         -1.355132   10.518686   3.188318 N.am        1 UNL1     -0.2772
     10 C         -2.211663   9.462796   3.399912 C.2        1 UNL1     0.1049
     11 C         -1.916021   8.338796   2.772661 C.2        1 UNL1     0.0801
     12 C         -3.384076   8.191094   5.206997 C.ar        1 UNL1     0.0753
     13 C         -2.861115   7.003726   4.602613 C.ar        1 UNL1     0.0305
     14 C         -2.219286   7.032079   3.290248 C.2        1 UNL1     0.0924
     15 N         -1.029316   8.105488   1.789885 N.pl3        1 UNL1     -0.3170
     16 C         -1.218313   6.752012   1.339734 C.3        1 UNL1     0.1275
     17 N         -1.77119   6.027454   2.542674 N.2        1 UNL1     -0.2557
     18 C         -2.339465   6.771971   0.305171 C.3        1 UNL1     0.0016
     19 C         -1.968503   7.753491   -0.795099 C.3        1 UNL1     0.0026
     20 N         -0.710153   7.330858   -1.394235 N.3        1 UNL1     -0.3018
     21 C         0.415635   7.221829   -0.464137 C.3        1 UNL1     0.0026
     22 C         0.022999   6.227586   0.630035 C.3        1 UNL1     0.0016
     23 C         -0.419642   8.015805   -2.638058 C.3        1 UNL1     0.0012
     24 C         -1.378796   7.551486   -3.745392 C.3        1 UNL1     -0.0339
     25 C         -0.687124   7.536025   -5.118493 C.3        1 UNL1     -0.0615
     26 C         -1.958288   6.191734   -3.396042 C.3        1 UNL1     -0.0615
     27 C         -4.100471   8.138154   6.400351 C.ar        1 UNL1     0.1347
     28 C         -4.390663   6.956417   7.058634 C.ar        1 UNL1     0.0342
     29 C         -3.823985   5.805369   6.471159 C.ar        1 UNL1     0.1435
     30 C         -3.073545   5.847278   5.295445 C.ar        1 UNL1     0.0774
     31 O         -4.10676   4.567203   6.931584 O.3        1 UNL1     -0.4436
     32 C         -3.76594   3.690427   5.847158 C.3        1 UNL1     0.3143
     33 C         -2.761153   4.461412   5.015172 C.2        1 UNL1     0.2504
     34 C         -5.359288   6.796255   8.197148 C.3        1 UNL1     -0.0327
     35 O         -3.070972   2.569723   6.407778 O.2        1 UNL1     -0.4528
     36 C         -3.841813   -0.373932   4.138684 C.3        1 UNL1     0.0854
     37 C         -3.592021   -0.529679   2.589211 C.3        1 UNL1     0.0236
     38 C         -2.729853   -1.815067   2.169462 C.3        1 UNL1     0.1131
     39 C         -1.348987   -2.10229   2.885688 C.3        1 UNL1     0.0200
     40 C         -0.269542   -0.862274   3.167815 C.3        1 UNL1     0.0661
     41 C         0.257988   0.275136   2.025177 C.3        1 UNL1     0.0091
     42 C         0.742979   2.032295   2.231523 C.3        1 UNL1     0.0661
     43 C         -3.215308   9.470701   4.474616 C.2        1 UNL1     0.2131
     44 O         -3.918583   10.448009   4.656305 O.2        1 UNL1     -0.2851
     45 O         -4.535586   9.344311   6.945602 O.3        1 UNL1     -0.5056
     46 O         -1.885508   4.028997   4.299549 O.2        1 UNL1     -0.2836
     47 C         2.480102   2.934198   4.044474 C.3        1 UNL1     -0.0566
     48 O         1.985533   1.901647   1.432708 O.3        1 UNL1     -0.3909
     49 C         -0.646101   0.206178   0.814656 C.3        1 UNL1     -0.0577
     50 O         -0.554289   -0.21918   4.393813 O.3        1 UNL1     -0.3910
     51 O         -3.140145   -1.271445   4.969083 O.3        1 UNL1     -0.3753
     52 C         -3.414813   0.855763   1.886289 C.3        1 UNL1     -0.0564
     53 O         -2.801867   -2.134352   0.704813 O.3        1 UNL1     -0.4608
     54 C         -3.672669   -1.569854   -0.190159 C.2        1 UNL1     0.3042
     55 O         -4.696496   -2.070761   -0.653525 O.2        1 UNL1     -0.2512
     56 C         -3.315797   -0.160786   -0.569482 C.3        1 UNL1     0.0332
     57 C         -1.628586   -3.132466   4.076795 C.3        1 UNL1     -0.0567
     58 C         -5.05706   3.497845   5.018032 C.3        1 UNL1     0.0210
     59 C         -2.572916   -0.685995   6.140136 C.3        1 UNL1     0.0372
     60 C         -3.599737   0.990942   4.680606 C.2        1 UNL1     -0.0208
     61 C         -2.957859   1.382348   5.782213 C.2        1 UNL1     0.0882
     62 H         0.400429   3.407795   3.857434 H        1 UNL1     0.0365
     63 H         0.381727   5.419676   4.207023 H        1 UNL1     0.0576
     64 H         2.501581   6.865434   2.500336 H        1 UNL1     0.0615
     65 H         0.28869   7.884721   4.455337 H        1 UNL1     0.0622
     66 H         -4.917309   -0.561974   4.265159 H        1 UNL1     0.0645
     67 H         -4.584888   -0.788951   2.182328 H        1 UNL1     0.0362
     68 H         -3.407778   -2.611371   2.51274 H        1 UNL1     0.0741
     69 H         -0.773547   -2.782578   2.272103 H        1 UNL1     0.0359
     70 H         0.646772   -1.449359   3.369706 H        1 UNL1     0.0600
     71 H         1.165194   -0.236344   1.647921 H        1 UNL1     0.0348
     72 H         0.810099   1.579737   3.231524 H        1 UNL1     0.0602
     73 H         -4.145147   1.69703   4.105092 H        1 UNL1     0.0628
     74 H         -2.329836   0.733332   6.393444 H        1 UNL1     0.1022
     75 H         2.763464   10.662293   2.744068 H        1 UNL1     0.0279
     76 H         1.508815   10.707245   1.570555 H        1 UNL1     0.0279
     77 H         1.443786   11.704958   3.079077 H        1 UNL1     0.0279
     78 H         -1.052647   10.477916   2.217279 H        1 UNL1     0.1553
     79 H         -0.644137   8.824204   1.205062 H        1 UNL1     0.1484
     80 H         -2.477824   5.758988   -0.091677 H        1 UNL1     0.0317
     81 H         -3.290725   7.061266   0.764587 H        1 UNL1     0.0317
     82 H         -1.899938   8.783635   -0.415607 H        1 UNL1     0.0428
     83 H         -2.782188   7.753396   -1.521024 H        1 UNL1     0.0428
     84 H         1.327173   6.826636   -0.923193 H        1 UNL1     0.0428
     85 H         0.718118   8.202554   -0.07171 H        1 UNL1     0.0428
     86 H         0.911931   6.072521   1.21291 H        1 UNL1     0.0317
     87 H         -0.166876   5.24121   0.18946 H        1 UNL1     0.0317
     88 H         -0.565921   9.091974   -2.477569 H        1 UNL1     0.0429
     89 H         0.627259   7.87445   -2.936035 H        1 UNL1     0.0429
     90 H         -2.232553   8.237871   -3.792182 H        1 UNL1     0.0308
     91 H         0.297882   7.063041   -5.062351 H        1 UNL1     0.0233
     92 H         -1.298149   7.005985   -5.852873 H        1 UNL1     0.0233
     93 H         -0.533125   8.544973   -5.51992 H        1 UNL1     0.0233
     94 H         -2.311992   5.687826   -4.302026 H        1 UNL1     0.0233
     95 H         -1.188247   5.563477   -2.939652 H        1 UNL1     0.0233
     96 H         -2.797673   6.282327   -2.700921 H        1 UNL1     0.0233
     97 H         -5.89304   7.71753   8.410671 H        1 UNL1     0.0280
     98 H         -6.130462   6.045132   7.981831 H        1 UNL1     0.0280
     99 H         -4.81371   6.494346   9.106153 H        1 UNL1     0.0280
     100 H         -5.34059   9.670098   6.583036 H        1 UNL1     0.2922
     101 H         2.102064   2.422731   4.929429 H        1 UNL1     0.0236
     102 H         3.238482   3.675746   4.293371 H        1 UNL1     0.0236
     103 H         3.022077   2.155986   3.481585 H        1 UNL1     0.0236
     104 H         1.880867   2.452381   0.632267 H        1 UNL1     0.2098
     105 H         -1.392162   -0.583454   0.855719 H        1 UNL1     0.0234
     106 H         -1.112174   1.152335   0.539903 H        1 UNL1     0.0234
     107 H         0.0   0.0   -0.0 H        1 UNL1     0.0234
     108 H         -1.526045   -0.162459   4.472807 H        1 UNL1     0.2098
     109 H         -2.362908   1.171681   1.848816 H        1 UNL1     0.0234
     110 H         -3.842226   0.884722   0.878211 H        1 UNL1     0.0234
     111 H         -3.945638   1.652996   2.423496 H        1 UNL1     0.0234
     112 H         -4.059355   0.236506   -1.267069 H        1 UNL1     0.0342
     113 H         -3.213436   0.484445   0.301748 H        1 UNL1     0.0342
     114 H         -2.346027   -0.17955   -1.085581 H        1 UNL1     0.0342
     115 H         -1.512944   -2.659253   5.061623 H        1 UNL1     0.0234
     116 H         -2.620216   -3.588278   4.045923 H        1 UNL1     0.0234
     117 H         -0.882852   -3.94344   4.141166 H        1 UNL1     0.0234
     118 H         -5.049999   2.548593   4.454228 H        1 UNL1     0.0309
     119 H         -5.967791   3.548196   5.623207 H        1 UNL1     0.0309
     120 H         -5.170879   4.255705   4.235216 H        1 UNL1     0.0309
     121 H         -1.720726   -1.29775   6.434899 H        1 UNL1     0.0524
     122 H         -2.200894   0.336118   5.958696 H        1 UNL1     0.0524
     123 H         -3.307876   -0.656973   6.939565 H        1 UNL1     0.0524
@<TRIPOS>BOND
     1     1     2    1
     2     1    42    1
     3     2     3    2
     4     3     4    1
     5     4     5    2
     6     5     7    1
     7     6    75    1
     8     6    76    1
     9     6    77    1
    10     7     9   am
    11     9    10    1
    12    10    11    2
    13    10    43    1
    14    11    14    1
    15    11    15    1
    16    12    13   ar
    17    12    27   ar
    18    12    43    1
    19    13    14    1
    20    13    30   ar
    21    14    17    2
    22    15    16    1
    23    16    17    1
    24    16    18    1
    25    16    22    1
    26    18    19    1
    27    19    20    1
    28    20    21    1
    29    21    22    1
    30    23    24    1
    31    23    88    1
    32    23    89    1
    33    24    25    1
    34    24    26    1
    35    24    90    1
    36    25    91    1
    37    25    92    1
    38    25    93    1
    39    26    94    1
    40    26    95    1
    41    26    96    1
    42    27    28   ar
    43    28    29   ar
    44    29    30   ar
    45    29    31    1
    46    30    33    1
    47    31    32    1
    48    32    33    1
    49    32    35    1
    50    34    97    1
    51    34    98    1
    52    34    99    1
    53    35    61    1
    54    36    37    1
    55    36    60    1
    56    37    38    1
    57    38    39    1
    58    39    40    1
    59    40    41    1
    60    41    42    1
    61    45   100    1
    62    47   101    1
    63    47   102    1
    64    47   103    1
    65    48   104    1
    66    49   105    1
    67    49   106    1
    68    49   107    1
    69    50   108    1
    70    51    59    1
    71    52   109    1
    72    52   110    1
    73    52   111    1
    74    53    54    1
    75    54    55    2
    76    54    56    1
    77    56   112    1
    78    56   113    1
    79    56   114    1
    80    57   115    1
    81    57   116    1
    82    57   117    1
    83    58   118    1
    84    58   119    1
    85    58   120    1
    86    59   121    1
    87    59   122    1
    88    59   123    1
    89    60    61    2
    90     1    47    1
    91     1    62    1
    92     2    63    1
    93     3    64    1
    94     4    65    1
    95     5     6    1
    96     7     8    2
    97     9    78    1
    98    15    79    1
    99    18    80    1
   100    18    81    1
   101    19    82    1
   102    19    83    1
   103    20    23    1
   104    21    84    1
   105    21    85    1
   106    22    86    1
   107    22    87    1
   108    27    45    1
   109    28    34    1
   110    32    58    1
   111    33    46    2
   112    36    51    1
   113    36    66    1
   114    37    52    1
   115    37    67    1
   116    38    53    1
   117    38    68    1
   118    42    48    1
   119    42    72    1
   120    43    44    2
   121    60    73    1
   122    61    74    1
   123    39    69    1
   124    39    57    1
   125    40    70    1
   126    40    50    1
   127    41    71    1
   128    41    49    1
