@<TRIPOS>MOLECULE
*****
 123 128 0 0 0
SMALL
GASTEIGER

@<TRIPOS>ATOM
     1 C         4.823236   2.424621   -0.492551 C.3        1 UNL1     0.0009
     2 C         5.780415   3.654369   -1.496823 C.2        1 UNL1     -0.0787
     3 C         6.829044   3.954208   -2.448937 C.2        1 UNL1     -0.0649
     4 C         7.196263   5.447858   -3.156409 C.2        1 UNL1     -0.0542
     5 C         7.8444   6.091641   -4.239248 C.2        1 UNL1     0.0115
     6 C         8.804453   5.870181   -5.44032 C.3        1 UNL1     -0.0348
     7 C         7.464011   7.613927   -4.578273 C.2        1 UNL1     0.2441
     8 O         8.169629   8.562184   -4.262934 O.2        1 UNL1     -0.2702
     9 N         6.402147   7.767392   -5.486592 N.am        1 UNL1     -0.2772
     10 C         5.198739   7.786636   -4.819687 C.2        1 UNL1     0.1049
     11 C         4.682613   6.609472   -4.516173 C.2        1 UNL1     0.0801
     12 C         4.020538   8.845467   -2.883698 C.ar        1 UNL1     0.0753
     13 C         3.660098   7.520626   -2.479362 C.ar        1 UNL1     0.0305
     14 C         3.868695   6.369893   -3.355348 C.2        1 UNL1     0.0924
     15 N         5.031397   5.380048   -4.932579 N.pl3        1 UNL1     -0.3170
     16 C         4.044888   4.454028   -4.443149 C.3        1 UNL1     0.1275
     17 N         3.509683   5.100151   -3.188635 N.2        1 UNL1     -0.2557
     18 C         2.892302   4.451008   -5.442768 C.3        1 UNL1     0.0016
     19 C         3.442949   4.112505   -6.81892 C.3        1 UNL1     0.0026
     20 N         4.086426   2.807454   -6.757224 N.3        1 UNL1     -0.3018
     21 C         5.169333   2.693879   -5.77805 C.3        1 UNL1     0.0026
     22 C         4.59286   3.033599   -4.40249 C.3        1 UNL1     0.0016
     23 C         4.378199   2.260066   -8.06714 C.3        1 UNL1     0.0012
     24 C         3.133707   2.323022   -8.966601 C.3        1 UNL1     -0.0339
     25 C         2.561274   0.921195   -9.233544 C.3        1 UNL1     -0.0615
     26 C         2.093582   3.243995   -8.352818 C.3        1 UNL1     -0.0615
     27 C         3.709006   9.95061   -2.095202 C.ar        1 UNL1     0.1347
     28 C         3.007232   9.860111   -0.906349 C.ar        1 UNL1     0.0342
     29 C         2.705712   8.541591   -0.504161 C.ar        1 UNL1     0.1435
     30 C         3.043265   7.422241   -1.265957 C.ar        1 UNL1     0.0774
     31 O         1.930754   8.293524   0.574222 O.3        1 UNL1     -0.4436
     32 C         1.46964   6.94692   0.387396 C.3        1 UNL1     0.3143
     33 C         2.487058   6.303943   -0.533285 C.2        1 UNL1     0.2504
     34 C         2.420936   11.012094   -0.138696 C.3        1 UNL1     -0.0327
     35 O         1.572835   6.281952   1.652474 O.2        1 UNL1     -0.4528
     36 C         -1.183657   3.672582   1.684462 C.3        1 UNL1     0.0854
     37 C         -1.4491   2.491279   0.673726 C.3        1 UNL1     0.0236
     38 C         -1.541735   1.036969   1.343162 C.3        1 UNL1     0.1131
     39 C         -0.400672   0.550335   2.324709 C.3        1 UNL1     0.0200
     40 C         1.203684   0.814045   1.951964 C.3        1 UNL1     0.0661
     41 C         1.953587   0.449082   0.474786 C.3        1 UNL1     0.0091
     42 C         3.334319   1.284788   -0.397326 C.3        1 UNL1     0.0661
     43 C         4.657953   9.01233   -4.213405 C.2        1 UNL1     0.2131
     44 O         4.655676   10.059875   -4.834196 O.2        1 UNL1     -0.2851
     45 O         4.135836   11.20056   -2.538912 O.3        1 UNL1     -0.5056
     46 O         2.786952   5.134573   -0.625437 O.2        1 UNL1     -0.2836
     47 C         5.669854   1.938343   0.714409 C.3        1 UNL1     -0.0566
     48 O         4.071253   0.02795   -0.673738 O.3        1 UNL1     -0.3909
     49 C         0.885447   0.167248   -0.558239 C.3        1 UNL1     -0.0577
     50 O         1.6206   2.086648   2.404054 O.3        1 UNL1     -0.3910
     51 O         -0.889062   3.294528   3.010252 O.3        1 UNL1     -0.3753
     52 C         -0.741094   2.730539   -0.699748 C.3        1 UNL1     -0.0564
     53 O         -2.133602   -0.003997   0.438502 O.3        1 UNL1     -0.4608
     54 C         -2.502034   -1.268817   0.815886 C.2        1 UNL1     0.3042
     55 O         -3.644541   -1.70315   0.95685 O.2        1 UNL1     -0.2512
     56 C         -1.339957   -2.20039   1.012 C.3        1 UNL1     0.0332
     57 C         -0.880861   0.866927   3.817144 C.3        1 UNL1     -0.0567
     58 C         0.11719   7.046843   -0.355856 C.3        1 UNL1     0.0210
     59 C         -1.861876   2.449349   3.622763 C.3        1 UNL1     0.0372
     60 C         -0.125382   4.632006   1.266467 C.2        1 UNL1     -0.0208
     61 C         0.875719   5.172115   1.962759 C.2        1 UNL1     0.0882
     62 H         4.194398   3.243972   -0.123851 H        1 UNL1     0.0365
     63 H         5.339239   4.590134   -1.147284 H        1 UNL1     0.0576
     64 H         7.401333   3.162898   -2.938246 H        1 UNL1     0.0615
     65 H         6.640589   6.167512   -2.549112 H        1 UNL1     0.0622
     66 H         -2.122284   4.244374   1.69339 H        1 UNL1     0.0645
     67 H         -2.491209   2.648502   0.34532 H        1 UNL1     0.0362
     68 H         -2.429572   1.182565   1.977252 H        1 UNL1     0.0741
     69 H         -0.450453   -0.527056   2.409313 H        1 UNL1     0.0359
     70 H         1.681546   0.101773   2.651519 H        1 UNL1     0.0600
     71 H         2.320758   -0.573196   0.69179 H        1 UNL1     0.0348
     72 H         3.395229   1.612181   0.650729 H        1 UNL1     0.0602
     73 H         -0.332513   4.973716   0.282811 H        1 UNL1     0.0628
     74 H         1.188959   4.838235   2.952528 H        1 UNL1     0.1022
     75 H         8.629361   6.640726   -6.229394 H        1 UNL1     0.0279
     76 H         9.867596   5.979323   -5.238123 H        1 UNL1     0.0279
     77 H         8.589382   4.942891   -5.9913 H        1 UNL1     0.0279
     78 H         6.384129   6.977511   -6.128341 H        1 UNL1     0.1553
     79 H         5.581203   5.205196   -5.753598 H        1 UNL1     0.1484
     80 H         2.1416   3.71926   -5.120655 H        1 UNL1     0.0317
     81 H         2.391362   5.424764   -5.465328 H        1 UNL1     0.0317
     82 H         4.142062   4.881944   -7.178249 H        1 UNL1     0.0428
     83 H         2.604853   4.117563   -7.516502 H        1 UNL1     0.0428
     84 H         5.58175   1.683488   -5.695374 H        1 UNL1     0.0428
     85 H         6.034447   3.313609   -6.051598 H        1 UNL1     0.0428
     86 H         5.373548   2.812059   -3.698619 H        1 UNL1     0.0317
     87 H         3.803847   2.318365   -4.139819 H        1 UNL1     0.0317
     88 H         5.170043   2.868728   -8.523 H        1 UNL1     0.0429
     89 H         4.762582   1.234542   -7.994184 H        1 UNL1     0.0429
     90 H         3.406858   2.777246   -9.926436 H        1 UNL1     0.0308
     91 H         1.651588   0.745598   -8.65153 H        1 UNL1     0.0233
     92 H         2.338635   0.790569   -10.295136 H        1 UNL1     0.0233
     93 H         3.267033   0.124535   -8.968833 H        1 UNL1     0.0233
     94 H         1.085812   2.876264   -8.574202 H        1 UNL1     0.0233
     95 H         2.211936   3.269485   -7.265939 H        1 UNL1     0.0233
     96 H         2.183048   4.262229   -8.741614 H        1 UNL1     0.0233
     97 H         2.163864   10.734671   0.879234 H        1 UNL1     0.0280
     98 H         3.122475   11.852204   -0.053168 H        1 UNL1     0.0280
     99 H         1.505784   11.363744   -0.642616 H        1 UNL1     0.0280
     100 H         4.983088   11.460161   -2.22206 H        1 UNL1     0.2922
     101 H         6.728642   2.090559   0.505949 H        1 UNL1     0.0236
     102 H         5.453556   0.910362   1.003295 H        1 UNL1     0.0236
     103 H         5.475265   2.532426   1.622921 H        1 UNL1     0.0236
     104 H         3.923851   -0.572864   0.082744 H        1 UNL1     0.2098
     105 H         0.696063   0.989099   -1.244173 H        1 UNL1     0.0234
     106 H         1.020339   -0.762512   -1.110759 H        1 UNL1     0.0234
     107 H         0.0   -0.0   0.0 H        1 UNL1     0.0234
     108 H         2.230853   1.942911   3.152852 H        1 UNL1     0.2098
     109 H         -0.397656   1.793334   -1.159539 H        1 UNL1     0.0234
     110 H         -1.361782   3.282892   -1.413468 H        1 UNL1     0.0234
     111 H         0.156319   3.353762   -0.589337 H        1 UNL1     0.0234
     112 H         -0.403099   -1.635251   0.995863 H        1 UNL1     0.0342
     113 H         -1.430466   -2.780659   1.929028 H        1 UNL1     0.0342
     114 H         -1.321302   -2.907396   0.171191 H        1 UNL1     0.0342
     115 H         -0.139624   0.545114   4.561584 H        1 UNL1     0.0234
     116 H         -1.093788   1.921941   4.000601 H        1 UNL1     0.0234
     117 H         -1.763459   0.282189   4.128662 H        1 UNL1     0.0234
     118 H         -0.016204   8.028217   -0.843828 H        1 UNL1     0.0309
     119 H         -0.024351   6.255345   -1.098621 H        1 UNL1     0.0309
     120 H         -0.740833   6.983264   0.322275 H        1 UNL1     0.0309
     121 H         -1.334238   1.601688   4.05914 H        1 UNL1     0.0524
     122 H         -2.40435   2.957701   4.437219 H        1 UNL1     0.0524
     123 H         -2.578875   2.104187   2.883257 H        1 UNL1     0.0524
@<TRIPOS>BOND
     1     1     2    1
     2     1    42    1
     3     2     3    2
     4     3     4    1
     5     4     5    2
     6     5     7    1
     7     6    75    1
     8     6    76    1
     9     6    77    1
    10     7     9   am
    11     9    10    1
    12    10    11    2
    13    10    43    1
    14    11    14    1
    15    11    15    1
    16    12    13   ar
    17    12    27   ar
    18    12    43    1
    19    13    14    1
    20    13    30   ar
    21    14    17    2
    22    15    16    1
    23    16    17    1
    24    16    18    1
    25    16    22    1
    26    18    19    1
    27    19    20    1
    28    20    21    1
    29    21    22    1
    30    23    24    1
    31    23    88    1
    32    23    89    1
    33    24    25    1
    34    24    26    1
    35    24    90    1
    36    25    91    1
    37    25    92    1
    38    25    93    1
    39    26    94    1
    40    26    95    1
    41    26    96    1
    42    27    28   ar
    43    28    29   ar
    44    29    30   ar
    45    29    31    1
    46    30    33    1
    47    31    32    1
    48    32    33    1
    49    32    35    1
    50    34    97    1
    51    34    98    1
    52    34    99    1
    53    35    61    1
    54    36    37    1
    55    36    60    1
    56    37    38    1
    57    38    39    1
    58    39    40    1
    59    40    41    1
    60    41    42    1
    61    45   100    1
    62    47   101    1
    63    47   102    1
    64    47   103    1
    65    48   104    1
    66    49   105    1
    67    49   106    1
    68    49   107    1
    69    50   108    1
    70    51    59    1
    71    52   109    1
    72    52   110    1
    73    52   111    1
    74    53    54    1
    75    54    55    2
    76    54    56    1
    77    56   112    1
    78    56   113    1
    79    56   114    1
    80    57   115    1
    81    57   116    1
    82    57   117    1
    83    58   118    1
    84    58   119    1
    85    58   120    1
    86    59   121    1
    87    59   122    1
    88    59   123    1
    89    60    61    2
    90     1    47    1
    91     1    62    1
    92     2    63    1
    93     3    64    1
    94     4    65    1
    95     5     6    1
    96     7     8    2
    97     9    78    1
    98    15    79    1
    99    18    80    1
   100    18    81    1
   101    19    82    1
   102    19    83    1
   103    20    23    1
   104    21    84    1
   105    21    85    1
   106    22    86    1
   107    22    87    1
   108    27    45    1
   109    28    34    1
   110    32    58    1
   111    33    46    2
   112    36    51    1
   113    36    66    1
   114    37    52    1
   115    37    67    1
   116    38    53    1
   117    38    68    1
   118    42    48    1
   119    42    72    1
   120    43    44    2
   121    60    73    1
   122    61    74    1
   123    39    69    1
   124    39    57    1
   125    40    70    1
   126    40    50    1
   127    41    71    1
   128    41    49    1
