@<TRIPOS>MOLECULE
*****
 123 128 0 0 0
SMALL
GASTEIGER

@<TRIPOS>ATOM
     1 C         -3.802669   0.897727   1.325265 C.3        1 UNL1     0.0009
     2 C         -5.401423   0.678086   0.412697 C.2        1 UNL1     -0.0787
     3 C         -6.460573   1.218167   -0.413475 C.2        1 UNL1     -0.0649
     4 C         -7.762742   0.389562   -1.109268 C.2        1 UNL1     -0.0542
     5 C         -8.75269   0.423549   -2.122148 C.2        1 UNL1     0.0115
     6 C         -9.424535   1.326667   -3.192815 C.3        1 UNL1     -0.0348
     7 C         -9.480716   -0.943851   -2.54308 C.2        1 UNL1     0.2441
     8 O         -10.607133   -1.240403   -2.169227 O.2        1 UNL1     -0.2702
     9 N         -8.846112   -1.65511   -3.576298 N.am        1 UNL1     -0.2772
     10 C         -7.898919   -2.509216   -3.059914 C.2        1 UNL1     0.1049
     11 C         -6.720375   -1.977303   -2.790982 C.2        1 UNL1     0.0801
     12 C         -7.551611   -4.260114   -1.307468 C.ar        1 UNL1     0.0753
     13 C         -6.387126   -3.525733   -0.915975 C.ar        1 UNL1     0.0305
     14 C         -5.862154   -2.432443   -1.730944 C.2        1 UNL1     0.0924
     15 N         -6.215671   -0.778887   -3.13098 N.pl3        1 UNL1     -0.3170
     16 C         -4.830958   -0.758481   -2.740586 C.3        1 UNL1     0.1275
     17 N         -4.75243   -1.715795   -1.576495 N.2        1 UNL1     -0.2557
     18 C         -4.03286   -1.400419   -3.871363 C.3        1 UNL1     0.0016
     19 C         -4.33227   -0.654839   -5.16212 C.3        1 UNL1     0.0026
     20 N         -3.965222   0.744003   -4.990234 N.3        1 UNL1     -0.3018
     21 C         -4.636354   1.43161   -3.885179 C.3        1 UNL1     0.0026
     22 C         -4.318258   0.668543   -2.598151 C.3        1 UNL1     0.0016
     23 C         -3.928124   1.475105   -6.241137 C.3        1 UNL1     0.0012
     24 C         -3.393489   2.898444   -6.017464 C.3        1 UNL1     -0.0339
     25 C         -3.359206   3.698975   -7.329727 C.3        1 UNL1     -0.0615
     26 C         -4.217691   3.603219   -4.954091 C.3        1 UNL1     -0.0615
     27 C         -7.975696   -5.376501   -0.590565 C.ar        1 UNL1     0.1347
     28 C         -7.297098   -5.875384   0.50701 C.ar        1 UNL1     0.0342
     29 C         -6.18142   -5.107675   0.903307 C.ar        1 UNL1     0.1435
     30 C         -5.765759   -3.96636   0.216396 C.ar        1 UNL1     0.0774
     31 O         -5.35332   -5.523258   1.886438 O.3        1 UNL1     -0.4436
     32 C         -4.14298   -4.779479   1.679691 C.3        1 UNL1     0.3143
     33 C         -4.562974   -3.546792   0.9049 C.2        1 UNL1     0.2504
     34 C         -7.545526   -7.202121   1.168941 C.3        1 UNL1     -0.0327
     35 O         -3.693479   -4.331645   2.964465 O.2        1 UNL1     -0.4528
     36 C         0.089607   -4.127729   2.730444 C.3        1 UNL1     0.0854
     37 C         0.982655   -3.303153   1.725426 C.3        1 UNL1     0.0236
     38 C         2.04883   -2.323997   2.415549 C.3        1 UNL1     0.1131
     39 C         1.576553   -1.315981   3.539439 C.3        1 UNL1     0.0200
     40 C         0.164355   -0.447353   3.356089 C.3        1 UNL1     0.0661
     41 C         -0.276046   0.4564   1.989748 C.3        1 UNL1     0.0091
     42 C         -1.928742   0.795585   1.269364 C.3        1 UNL1     0.0661
     43 C         -8.241808   -3.846883   -2.554516 C.2        1 UNL1     0.2131
     44 O         -8.968029   -4.583059   -3.197466 O.2        1 UNL1     -0.2851
     45 O         -9.144613   -6.007462   -1.011232 O.3        1 UNL1     -0.5056
     46 O         -4.036022   -2.457059   0.879273 O.2        1 UNL1     -0.2836
     47 C         -4.035685   1.693999   2.637376 C.3        1 UNL1     -0.0566
     48 O         -1.689086   2.250949   1.115746 O.3        1 UNL1     -0.3909
     49 C         0.637053   0.083732   0.843073 C.3        1 UNL1     -0.0577
     50 O         -0.944525   -1.18927   3.822638 O.3        1 UNL1     -0.3910
     51 O         0.212386   -3.780459   4.091238 O.3        1 UNL1     -0.3753
     52 C         0.188727   -2.895186   0.441607 C.3        1 UNL1     -0.0564
     53 O         3.105305   -1.826375   1.472914 O.3        1 UNL1     -0.4608
     54 C         4.428533   -1.650523   1.782868 C.2        1 UNL1     0.3042
     55 O         5.378874   -2.342999   1.420697 O.2        1 UNL1     -0.2512
     56 C         4.694036   -0.428199   2.614821 C.3        1 UNL1     0.0332
     57 C         1.845691   -2.010928   4.954638 C.3        1 UNL1     -0.0567
     58 C         -3.24151   -5.653196   0.776641 C.3        1 UNL1     0.0210
     59 C         1.033806   -2.642304   4.347631 C.3        1 UNL1     0.0372
     60 C         -1.365713   -4.134277   2.418738 C.2        1 UNL1     -0.0208
     61 C         -2.42141   -3.96798   3.216606 C.2        1 UNL1     0.0882
     62 H         -3.83256   -0.164947   1.594601 H        1 UNL1     0.0365
     63 H         -5.650316   -0.35033   0.682666 H        1 UNL1     0.0576
     64 H         -6.415234   2.234925   -0.810027 H        1 UNL1     0.0615
     65 H         -7.765175   -0.573614   -0.591804 H        1 UNL1     0.0622
     66 H         0.427868   -5.166733   2.611717 H        1 UNL1     0.0645
     67 H         1.643434   -4.061118   1.269994 H        1 UNL1     0.0362
     68 H         2.672848   -3.067741   2.93417 H        1 UNL1     0.0741
     69 H         2.321268   -0.538347   3.644768 H        1 UNL1     0.0359
     70 H         0.318949   0.33267   4.125975 H        1 UNL1     0.0600
     71 H         0.127604   1.447605   2.275295 H        1 UNL1     0.0348
     72 H         -2.109006   0.484005   2.308469 H        1 UNL1     0.0602
     73 H         -1.505271   -4.431041   1.408934 H        1 UNL1     0.0628
     74 H         -2.366691   -3.609471   4.245059 H        1 UNL1     0.1022
     75 H         -9.79357   2.274035   -2.730927 H        1 UNL1     0.0279
     76 H         -8.783148   1.690262   -3.992496 H        1 UNL1     0.0279
     77 H         -10.358641   0.898424   -3.584929 H        1 UNL1     0.0279
     78 H         -8.366954   -1.004453   -4.195274 H        1 UNL1     0.1553
     79 H         -6.579192   -0.212236   -3.875085 H        1 UNL1     0.1484
     80 H         -2.965306   -1.359427   -3.623542 H        1 UNL1     0.0317
     81 H         -4.289235   -2.459841   -3.978825 H        1 UNL1     0.0317
     82 H         -5.388137   -0.754015   -5.454045 H        1 UNL1     0.0428
     83 H         -3.754456   -1.129984   -5.955479 H        1 UNL1     0.0428
     84 H         -4.284725   2.456011   -3.72779 H        1 UNL1     0.0428
     85 H         -5.713885   1.54455   -4.068177 H        1 UNL1     0.0428
     86 H         -4.711408   1.270477   -1.799967 H        1 UNL1     0.0317
     87 H         -3.236952   0.678142   -2.414355 H        1 UNL1     0.0317
     88 H         -3.247766   0.94949   -6.923878 H        1 UNL1     0.0429
     89 H         -4.914845   1.493687   -6.721564 H        1 UNL1     0.0429
     90 H         -2.374415   2.84055   -5.61703 H        1 UNL1     0.0308
     91 H         -4.102468   4.501872   -7.325355 H        1 UNL1     0.0233
     92 H         -2.368252   4.128503   -7.49442 H        1 UNL1     0.0233
     93 H         -3.571081   3.074098   -8.205782 H        1 UNL1     0.0233
     94 H         -5.174136   3.932618   -5.374265 H        1 UNL1     0.0233
     95 H         -4.430173   2.91647   -4.129962 H        1 UNL1     0.0233
     96 H         -3.694392   4.478203   -4.558454 H        1 UNL1     0.0233
     97 H         -7.728378   -7.098059   2.234289 H        1 UNL1     0.0280
     98 H         -8.429335   -7.709351   0.760461 H        1 UNL1     0.0280
     99 H         -6.667041   -7.853552   1.031118 H        1 UNL1     0.0280
     100 H         -9.246591   -6.89003   -0.700916 H        1 UNL1     0.2922
     101 H         -4.95065   2.280149   2.554175 H        1 UNL1     0.0236
     102 H         -3.1819   2.307034   2.92412 H        1 UNL1     0.0236
     103 H         -4.206758   1.029143   3.500448 H        1 UNL1     0.0236
     104 H         -0.735821   2.376051   0.940805 H        1 UNL1     0.2098
     105 H         1.396402   0.82712   0.613778 H        1 UNL1     0.0234
     106 H         1.088456   -0.905071   0.923262 H        1 UNL1     0.0234
     107 H         0.0   -0.0   0.0 H        1 UNL1     0.0234
     108 H         -1.745046   -0.660775   3.63926 H        1 UNL1     0.2098
     109 H         0.846782   -2.754229   -0.427188 H        1 UNL1     0.0234
     110 H         -0.608949   -3.601099   0.186374 H        1 UNL1     0.0234
     111 H         -0.334759   -1.939257   0.576173 H        1 UNL1     0.0234
     112 H         3.748773   -0.009481   2.97329 H        1 UNL1     0.0342
     113 H         5.368797   -0.635771   3.44395 H        1 UNL1     0.0342
     114 H         5.174684   0.32459   1.974938 H        1 UNL1     0.0342
     115 H         2.560562   -2.841232   4.872526 H        1 UNL1     0.0234
     116 H         2.221234   -1.328769   5.719933 H        1 UNL1     0.0234
     117 H         0.962409   -2.530003   5.364902 H        1 UNL1     0.0234
     118 H         -3.541724   -5.599994   -0.284513 H        1 UNL1     0.0309
     119 H         -2.178858   -5.404523   0.861108 H        1 UNL1     0.0309
     120 H         -3.322501   -6.720737   1.00881 H        1 UNL1     0.0309
     121 H         1.079596   -2.505339   5.427677 H        1 UNL1     0.0524
     122 H         2.066406   -2.781734   3.986612 H        1 UNL1     0.0524
     123 H         0.611351   -1.75987   3.875469 H        1 UNL1     0.0524
@<TRIPOS>BOND
     1     1     2    1
     2     1    42    1
     3     2     3    2
     4     3     4    1
     5     4     5    2
     6     5     7    1
     7     6    75    1
     8     6    76    1
     9     6    77    1
    10     7     9   am
    11     9    10    1
    12    10    11    2
    13    10    43    1
    14    11    14    1
    15    11    15    1
    16    12    13   ar
    17    12    27   ar
    18    12    43    1
    19    13    14    1
    20    13    30   ar
    21    14    17    2
    22    15    16    1
    23    16    17    1
    24    16    18    1
    25    16    22    1
    26    18    19    1
    27    19    20    1
    28    20    21    1
    29    21    22    1
    30    23    24    1
    31    23    88    1
    32    23    89    1
    33    24    25    1
    34    24    26    1
    35    24    90    1
    36    25    91    1
    37    25    92    1
    38    25    93    1
    39    26    94    1
    40    26    95    1
    41    26    96    1
    42    27    28   ar
    43    28    29   ar
    44    29    30   ar
    45    29    31    1
    46    30    33    1
    47    31    32    1
    48    32    33    1
    49    32    35    1
    50    34    97    1
    51    34    98    1
    52    34    99    1
    53    35    61    1
    54    36    37    1
    55    36    60    1
    56    37    38    1
    57    38    39    1
    58    39    40    1
    59    40    41    1
    60    41    42    1
    61    45   100    1
    62    47   101    1
    63    47   102    1
    64    47   103    1
    65    48   104    1
    66    49   105    1
    67    49   106    1
    68    49   107    1
    69    50   108    1
    70    51    59    1
    71    52   109    1
    72    52   110    1
    73    52   111    1
    74    53    54    1
    75    54    55    2
    76    54    56    1
    77    56   112    1
    78    56   113    1
    79    56   114    1
    80    57   115    1
    81    57   116    1
    82    57   117    1
    83    58   118    1
    84    58   119    1
    85    58   120    1
    86    59   121    1
    87    59   122    1
    88    59   123    1
    89    60    61    2
    90     1    47    1
    91     1    62    1
    92     2    63    1
    93     3    64    1
    94     4    65    1
    95     5     6    1
    96     7     8    2
    97     9    78    1
    98    15    79    1
    99    18    80    1
   100    18    81    1
   101    19    82    1
   102    19    83    1
   103    20    23    1
   104    21    84    1
   105    21    85    1
   106    22    86    1
   107    22    87    1
   108    27    45    1
   109    28    34    1
   110    32    58    1
   111    33    46    2
   112    36    51    1
   113    36    66    1
   114    37    52    1
   115    37    67    1
   116    38    53    1
   117    38    68    1
   118    42    48    1
   119    42    72    1
   120    43    44    2
   121    60    73    1
   122    61    74    1
   123    39    69    1
   124    39    57    1
   125    40    70    1
   126    40    50    1
   127    41    71    1
   128    41    49    1
