@<TRIPOS>MOLECULE
*****
 123 128 0 0 0
SMALL
GASTEIGER

@<TRIPOS>ATOM
     1 C         0.244297   0.024956   4.121287 C.3        1 UNL1     0.0009
     2 C         -0.821274   -0.887751   5.33313 C.2        1 UNL1     -0.0787
     3 C         -1.966454   -0.927194   6.218033 C.2        1 UNL1     -0.0649
     4 C         -2.567631   -2.252343   7.083437 C.2        1 UNL1     -0.0542
     5 C         -3.69784   -2.788855   7.748164 C.2        1 UNL1     0.0115
     6 C         -5.119621   -2.455481   8.277996 C.3        1 UNL1     -0.0348
     7 C         -3.752959   -4.367123   8.036299 C.2        1 UNL1     0.2441
     8 O         -3.519435   -4.851495   9.135105 O.2        1 UNL1     -0.2702
     9 N         -4.339916   -5.132401   7.013566 N.am        1 UNL1     -0.2772
     10 C         -3.393086   -5.500266   6.08539 C.2        1 UNL1     0.1049
     11 C         -3.106129   -4.603075   5.159686 C.2        1 UNL1     0.0801
     12 C         -1.114112   -6.508684   5.869275 C.ar        1 UNL1     0.0753
     13 C         -0.786534   -5.395193   5.031755 C.ar        1 UNL1     0.0305
     14 C         -1.812783   -4.476302   4.544413 C.2        1 UNL1     0.0924
     15 N         -3.735247   -3.458798   4.841304 N.pl3        1 UNL1     -0.3170
     16 C         -3.122091   -2.937406   3.648641 C.3        1 UNL1     0.1275
     17 N         -1.70755   -3.461834   3.690769 N.2        1 UNL1     -0.2557
     18 C         -3.791802   -3.620594   2.460179 C.3        1 UNL1     0.0016
     19 C         -5.291835   -3.388611   2.547786 C.3        1 UNL1     0.0026
     20 N         -5.544691   -1.954385   2.538437 N.3        1 UNL1     -0.3018
     21 C         -4.890397   -1.200725   3.610008 C.3        1 UNL1     0.0026
     22 C         -3.384272   -1.444498   3.500205 C.3        1 UNL1     0.0016
     23 C         -6.939669   -1.629118   2.317343 C.3        1 UNL1     0.0012
     24 C         -7.345329   -1.952199   0.870686 C.3        1 UNL1     -0.0339
     25 C         -8.335854   -3.126775   0.813355 C.3        1 UNL1     -0.0615
     26 C         -7.909012   -0.712296   0.198614 C.3        1 UNL1     -0.0615
     27 C         -0.151156   -7.448018   6.230503 C.ar        1 UNL1     0.1347
     28 C         1.157895   -7.401501   5.785227 C.ar        1 UNL1     0.0342
     29 C         1.469255   -6.269926   5.0018 C.ar        1 UNL1     0.1435
     30 C         0.523752   -5.301626   4.661743 C.ar        1 UNL1     0.0774
     31 O         2.672582   -6.137264   4.402289 O.3        1 UNL1     -0.4436
     32 C         2.455112   -5.171983   3.362187 C.3        1 UNL1     0.3143
     33 C         1.239905   -4.381416   3.803195 C.2        1 UNL1     0.2504
     34 C         2.175578   -8.499438   5.922906 C.3        1 UNL1     -0.0327
     35 O         3.568259   -4.269829   3.378765 O.2        1 UNL1     -0.4528
     36 C         3.99584   -3.078765   -0.19987 C.3        1 UNL1     0.0854
     37 C         2.956323   -2.355827   -1.140236 C.3        1 UNL1     0.0236
     38 C         3.456132   -0.961149   -1.754083 C.3        1 UNL1     0.1131
     39 C         4.055242   0.147681   -0.798137 C.3        1 UNL1     0.0200
     40 C         3.322235   0.491772   0.660197 C.3        1 UNL1     0.0661
     41 C         1.671788   0.807311   0.892733 C.3        1 UNL1     0.0091
     42 C         0.581059   0.445859   2.32279 C.3        1 UNL1     0.0661
     43 C         -2.533483   -6.679378   6.267407 C.2        1 UNL1     0.2131
     44 O         -3.009231   -7.741849   6.624561 O.2        1 UNL1     -0.2851
     45 O         -0.541915   -8.476293   7.08572 O.3        1 UNL1     -0.5056
     46 O         0.941553   -3.241186   3.526219 O.2        1 UNL1     -0.2836
     47 C         1.13437   1.06093   4.859194 C.3        1 UNL1     -0.0566
     48 O         -0.014714   1.803427   2.357119 O.3        1 UNL1     -0.3909
     49 C         0.916688   0.398851   -0.352449 C.3        1 UNL1     -0.0577
     50 O         3.797238   -0.369352   1.675363 O.3        1 UNL1     -0.3910
     51 O         5.151886   -2.339634   0.123665 O.3        1 UNL1     -0.3753
     52 C         1.485377   -2.571138   -0.655563 C.3        1 UNL1     -0.0564
     53 O         2.617049   -0.473795   -2.898964 O.3        1 UNL1     -0.4608
     54 C         2.293986   0.834552   -3.147539 C.2        1 UNL1     0.3042
     55 O         1.202644   1.378517   -2.983488 O.2        1 UNL1     -0.2512
     56 C         3.455944   1.661815   -3.618925 C.3        1 UNL1     0.0332
     57 C         5.646693   -0.011161   -0.813224 C.3        1 UNL1     -0.0567
     58 C         2.093984   -5.973626   2.089991 C.3        1 UNL1     0.0210
     59 C         6.348619   -2.791493   -0.508411 C.3        1 UNL1     0.0372
     60 C         3.437025   -3.58511   1.083291 C.2        1 UNL1     -0.0208
     61 C         3.915145   -3.505077   2.325764 C.2        1 UNL1     0.0882
     62 H         0.851276   -0.880637   4.00217 H        1 UNL1     0.0365
     63 H         -0.266742   -1.823758   5.427226 H        1 UNL1     0.0576
     64 H         -2.671817   -0.095402   6.2788 H        1 UNL1     0.0615
     65 H         -1.761321   -2.988584   7.02603 H        1 UNL1     0.0622
     66 H         4.307   -3.968622   -0.765006 H        1 UNL1     0.0645
     67 H         2.921974   -2.992497   -2.041364 H        1 UNL1     0.0362
     68 H         4.306235   -1.318732   -2.3549 H        1 UNL1     0.0741
     69 H         4.025558   1.100777   -1.309152 H        1 UNL1     0.0359
     70 H         3.792009   1.468662   0.883934 H        1 UNL1     0.0600
     71 H         1.670345   1.910695   0.795278 H        1 UNL1     0.0348
     72 H         1.610164   0.404309   2.708188 H        1 UNL1     0.0602
     73 H         2.583439   -4.183098   0.880682 H        1 UNL1     0.0628
     74 H         4.748707   -2.869238   2.625964 H        1 UNL1     0.1022
     75 H         -5.108875   -1.499164   8.854518 H        1 UNL1     0.0279
     76 H         -5.885211   -2.268493   7.528344 H        1 UNL1     0.0279
     77 H         -5.465796   -3.165907   9.042952 H        1 UNL1     0.0279
     78 H         -5.042515   -4.576369   6.530596 H        1 UNL1     0.1553
     79 H         -4.682945   -3.253733   5.099663 H        1 UNL1     0.1484
     80 H         -3.376668   -3.210568   1.531573 H        1 UNL1     0.0317
     81 H         -3.575326   -4.69425   2.453064 H        1 UNL1     0.0317
     82 H         -5.725377   -3.861153   3.441463 H        1 UNL1     0.0428
     83 H         -5.749844   -3.885565   1.692032 H        1 UNL1     0.0428
     84 H         -5.030963   -0.118025   3.533767 H        1 UNL1     0.0428
     85 H         -5.300607   -1.45415   4.597338 H        1 UNL1     0.0428
     86 H         -2.930548   -0.777753   4.209834 H        1 UNL1     0.0317
     87 H         -3.014681   -1.077513   2.534896 H        1 UNL1     0.0317
     88 H         -7.545416   -2.243996   2.995789 H        1 UNL1     0.0429
     89 H         -7.148043   -0.579606   2.562044 H        1 UNL1     0.0429
     90 H         -6.449943   -2.222259   0.298354 H        1 UNL1     0.0308
     91 H         -8.885935   -3.229417   1.753556 H        1 UNL1     0.0233
     92 H         -9.046801   -2.992938   -0.005335 H        1 UNL1     0.0233
     93 H         -7.836234   -4.085876   0.63076 H        1 UNL1     0.0233
     94 H         -8.259845   -0.955869   -0.810061 H        1 UNL1     0.0233
     95 H         -8.761083   -0.332605   0.769379 H        1 UNL1     0.0233
     96 H         -7.155991   0.076984   0.121376 H        1 UNL1     0.0233
     97 H         2.557164   -8.824453   4.959585 H        1 UNL1     0.0280
     98 H         3.052456   -8.180743   6.501503 H        1 UNL1     0.0280
     99 H         1.716408   -9.367594   6.423469 H        1 UNL1     0.0280
     100 H         -1.009307   -8.192266   7.85155 H        1 UNL1     0.2922
     101 H         2.157845   0.691105   4.91737 H        1 UNL1     0.0236
     102 H         0.744672   1.34149   5.837154 H        1 UNL1     0.0236
     103 H         1.211161   2.010828   4.304225 H        1 UNL1     0.0236
     104 H         0.169418   2.228189   1.496513 H        1 UNL1     0.2098
     105 H         0.685092   1.219542   -1.02672 H        1 UNL1     0.0234
     106 H         1.361977   -0.429052   -0.90401 H        1 UNL1     0.0234
     107 H         0.0   -0.0   0.0 H        1 UNL1     0.0234
     108 H         4.646865   -0.005269   1.990555 H        1 UNL1     0.2098
     109 H         1.202046   -3.632894   -0.645123 H        1 UNL1     0.0234
     110 H         1.286875   -2.129256   0.326822 H        1 UNL1     0.0234
     111 H         0.763899   -2.077497   -1.320194 H        1 UNL1     0.0234
     112 H         3.136131   2.696081   -3.778172 H        1 UNL1     0.0342
     113 H         4.298184   1.614926   -2.930248 H        1 UNL1     0.0342
     114 H         3.793022   1.261026   -4.584798 H        1 UNL1     0.0342
     115 H         6.014192   -0.348511   -1.792166 H        1 UNL1     0.0234
     116 H         6.186493   0.902614   -0.55694 H        1 UNL1     0.0234
     117 H         6.014381   -0.819169   -0.15758 H        1 UNL1     0.0234
     118 H         2.89433   -5.929049   1.330738 H        1 UNL1     0.0309
     119 H         1.853891   -7.0215   2.296189 H        1 UNL1     0.0309
     120 H         1.225151   -5.560979   1.565628 H        1 UNL1     0.0309
     121 H         6.375135   -2.361981   -1.509497 H        1 UNL1     0.0524
     122 H         7.25481   -2.454085   0.021694 H        1 UNL1     0.0524
     123 H         6.356932   -3.876275   -0.565616 H        1 UNL1     0.0524
@<TRIPOS>BOND
     1     1     2    1
     2     1    42    1
     3     2     3    2
     4     3     4    1
     5     4     5    2
     6     5     7    1
     7     6    75    1
     8     6    76    1
     9     6    77    1
    10     7     9   am
    11     9    10    1
    12    10    11    2
    13    10    43    1
    14    11    14    1
    15    11    15    1
    16    12    13   ar
    17    12    27   ar
    18    12    43    1
    19    13    14    1
    20    13    30   ar
    21    14    17    2
    22    15    16    1
    23    16    17    1
    24    16    18    1
    25    16    22    1
    26    18    19    1
    27    19    20    1
    28    20    21    1
    29    21    22    1
    30    23    24    1
    31    23    88    1
    32    23    89    1
    33    24    25    1
    34    24    26    1
    35    24    90    1
    36    25    91    1
    37    25    92    1
    38    25    93    1
    39    26    94    1
    40    26    95    1
    41    26    96    1
    42    27    28   ar
    43    28    29   ar
    44    29    30   ar
    45    29    31    1
    46    30    33    1
    47    31    32    1
    48    32    33    1
    49    32    35    1
    50    34    97    1
    51    34    98    1
    52    34    99    1
    53    35    61    1
    54    36    37    1
    55    36    60    1
    56    37    38    1
    57    38    39    1
    58    39    40    1
    59    40    41    1
    60    41    42    1
    61    45   100    1
    62    47   101    1
    63    47   102    1
    64    47   103    1
    65    48   104    1
    66    49   105    1
    67    49   106    1
    68    49   107    1
    69    50   108    1
    70    51    59    1
    71    52   109    1
    72    52   110    1
    73    52   111    1
    74    53    54    1
    75    54    55    2
    76    54    56    1
    77    56   112    1
    78    56   113    1
    79    56   114    1
    80    57   115    1
    81    57   116    1
    82    57   117    1
    83    58   118    1
    84    58   119    1
    85    58   120    1
    86    59   121    1
    87    59   122    1
    88    59   123    1
    89    60    61    2
    90     1    47    1
    91     1    62    1
    92     2    63    1
    93     3    64    1
    94     4    65    1
    95     5     6    1
    96     7     8    2
    97     9    78    1
    98    15    79    1
    99    18    80    1
   100    18    81    1
   101    19    82    1
   102    19    83    1
   103    20    23    1
   104    21    84    1
   105    21    85    1
   106    22    86    1
   107    22    87    1
   108    27    45    1
   109    28    34    1
   110    32    58    1
   111    33    46    2
   112    36    51    1
   113    36    66    1
   114    37    52    1
   115    37    67    1
   116    38    53    1
   117    38    68    1
   118    42    48    1
   119    42    72    1
   120    43    44    2
   121    60    73    1
   122    61    74    1
   123    39    69    1
   124    39    57    1
   125    40    70    1
   126    40    50    1
   127    41    71    1
   128    41    49    1
