@<TRIPOS>MOLECULE
*****
 123 128 0 0 0
SMALL
GASTEIGER

@<TRIPOS>ATOM
     1 C         -0.479164   -5.449255   0.296265 C.3        1 UNL1     0.0009
     2 C         -1.053833   -6.987806   -0.563766 C.2        1 UNL1     -0.0787
     3 C         -2.033401   -8.04015   -0.734251 C.2        1 UNL1     -0.0649
     4 C         -2.061484   -9.25454   -1.913584 C.2        1 UNL1     -0.0542
     5 C         -2.874097   -10.197527   -2.589981 C.2        1 UNL1     0.0115
     6 C         -4.271834   -10.875464   -2.597577 C.3        1 UNL1     -0.0348
     7 C         -2.354426   -10.818098   -3.976279 C.2        1 UNL1     0.2441
     8 O         -1.873508   -11.939458   -4.064571 O.2        1 UNL1     -0.2702
     9 N         -2.726448   -10.093597   -5.122076 N.am        1 UNL1     -0.2772
     10 C         -1.79496   -9.118999   -5.397414 C.2        1 UNL1     0.1049
     11 C         -1.917531   -7.989749   -4.723624 C.2        1 UNL1     0.0801
     12 C         0.664348   -8.742276   -5.656681 C.ar        1 UNL1     0.0753
     13 C         0.5125   -7.645369   -4.749848 C.ar        1 UNL1     0.0305
     14 C         -0.806428   -7.15372   -4.357725 C.2        1 UNL1     0.0924
     15 N         -2.928836   -7.546546   -3.957228 N.pl3        1 UNL1     -0.3170
     16 C         -2.639723   -6.185075   -3.592449 C.3        1 UNL1     0.1275
     17 N         -1.133115   -6.099503   -3.615547 N.2        1 UNL1     -0.2557
     18 C         -3.131811   -5.297497   -4.73164 C.3        1 UNL1     0.0016
     19 C         -4.605843   -5.584188   -4.969607 C.3        1 UNL1     0.0026
     20 N         -5.339239   -5.314146   -3.740689 N.3        1 UNL1     -0.3018
     21 C         -4.896062   -6.076846   -2.571821 C.3        1 UNL1     0.0026
     22 C         -3.41418   -5.770256   -2.348388 C.3        1 UNL1     0.0016
     23 C         -6.774137   -5.266248   -3.939222 C.3        1 UNL1     0.0012
     24 C         -7.318246   -6.663522   -4.275864 C.3        1 UNL1     -0.0339
     25 C         -7.528641   -7.505841   -3.006892 C.3        1 UNL1     -0.0615
     26 C         -8.597704   -6.543049   -5.085341 C.3        1 UNL1     -0.0615
     27 C         1.920304   -9.127425   -6.119662 C.ar        1 UNL1     0.1347
     28 C         3.088572   -8.469431   -5.778717 C.ar        1 UNL1     0.0342
     29 C         2.919999   -7.423502   -4.846633 C.ar        1 UNL1     0.1435
     30 C         1.672155   -7.049686   -4.346267 C.ar        1 UNL1     0.0774
     31 O         3.946333   -6.616492   -4.499672 O.3        1 UNL1     -0.4436
     32 C         3.319058   -5.447229   -3.951747 C.3        1 UNL1     0.3143
     33 C         1.948385   -5.908294   -3.499102 C.2        1 UNL1     0.2504
     34 C         4.431193   -8.663708   -6.42658 C.3        1 UNL1     -0.0327
     35 O         4.04817   -5.085768   -2.772343 O.2        1 UNL1     -0.4528
     36 C         3.725596   -1.316303   -2.463853 C.3        1 UNL1     0.0854
     37 C         2.422871   -0.43212   -2.370829 C.3        1 UNL1     0.0236
     38 C         2.35397   0.537768   -1.095559 C.3        1 UNL1     0.1131
     39 C         2.612664   -0.047708   0.351011 C.3        1 UNL1     0.0200
     40 C         1.935054   -1.501982   0.807488 C.3        1 UNL1     0.0661
     41 C         0.304134   -1.935754   0.635576 C.3        1 UNL1     0.0091
     42 C         -0.465929   -3.572017   0.327274 C.3        1 UNL1     0.0661
     43 C         -0.568086   -9.399636   -6.157925 C.2        1 UNL1     0.2131
     44 O         -0.613902   -10.048044   -7.187587 O.2        1 UNL1     -0.2851
     45 O         1.985168   -10.233933   -6.963979 O.3        1 UNL1     -0.5056
     46 O         1.251067   -5.45038   -2.621654 O.2        1 UNL1     -0.2836
     47 C         0.057686   -5.791431   1.712136 C.3        1 UNL1     -0.0566
     48 O         -1.489365   -3.417724   1.389294 O.3        1 UNL1     -0.3909
     49 C         -0.367715   -0.949753   -0.293894 C.3        1 UNL1     -0.0577
     50 O         2.76471   -2.582035   0.429497 O.3        1 UNL1     -0.3910
     51 O         4.577779   -1.277705   -1.341478 O.3        1 UNL1     -0.3753
     52 C         1.16519   -1.190893   -2.906973 C.3        1 UNL1     -0.0564
     53 O         1.302318   1.602628   -1.207028 O.3        1 UNL1     -0.4608
     54 C         0.51813   2.056402   -0.17889 C.2        1 UNL1     0.3042
     55 O         0.16991   3.216166   0.039123 O.2        1 UNL1     -0.2512
     56 C         0.011146   0.963436   0.718387 C.3        1 UNL1     0.0332
     57 C         4.153064   0.199948   0.70316 C.3        1 UNL1     -0.0567
     58 C         3.148995   -4.452365   -5.123436 C.3        1 UNL1     0.0210
     59 C         5.705458   -0.413703   -1.474535 C.3        1 UNL1     0.0372
     60 C         3.489876   -2.752622   -2.774631 C.2        1 UNL1     -0.0208
     61 C         4.0164   -3.851918   -2.233276 C.2        1 UNL1     0.0882
     62 H         0.390978   -5.42441   -0.370778 H        1 UNL1     0.0365
     63 H         -0.203703   -7.183487   -1.22062 H        1 UNL1     0.0576
     64 H         -2.974962   -8.040912   -0.180565 H        1 UNL1     0.0615
     65 H         -1.058395   -9.219878   -2.347283 H        1 UNL1     0.0622
     66 H         4.275325   -0.908243   -3.323696 H        1 UNL1     0.0645
     67 H         2.533114   0.295116   -3.193953 H        1 UNL1     0.0362
     68 H         3.219878   1.183118   -1.308275 H        1 UNL1     0.0741
     69 H         2.21084   0.641   1.082193 H        1 UNL1     0.0359
     70 H         2.055196   -1.432012   1.905546 H        1 UNL1     0.0600
     71 H         -0.087519   -1.608731   1.618744 H        1 UNL1     0.0348
     72 H         0.543205   -3.77942   0.711914 H        1 UNL1     0.0602
     73 H         2.881872   -2.827105   -3.641829 H        1 UNL1     0.0628
     74 H         4.601047   -3.866754   -1.312839 H        1 UNL1     0.1022
     75 H         -4.913016   -10.442783   -3.403 H        1 UNL1     0.0279
     76 H         -4.294124   -11.938626   -2.826176 H        1 UNL1     0.0279
     77 H         -4.863109   -10.640948   -1.700305 H        1 UNL1     0.0279
     78 H         -3.617063   -9.628677   -4.958576 H        1 UNL1     0.1553
     79 H         -3.862779   -7.910773   -4.002201 H        1 UNL1     0.1484
     80 H         -2.966288   -4.247033   -4.463512 H        1 UNL1     0.0317
     81 H         -2.558616   -5.481503   -5.646648 H        1 UNL1     0.0317
     82 H         -4.769951   -6.61733   -5.309602 H        1 UNL1     0.0428
     83 H         -4.935809   -4.94209   -5.786848 H        1 UNL1     0.0428
     84 H         -5.408688   -5.797942   -1.645949 H        1 UNL1     0.0428
     85 H         -5.106099   -7.1499   -2.680246 H        1 UNL1     0.0428
     86 H         -3.15963   -6.23645   -1.414656 H        1 UNL1     0.0317
     87 H         -3.279485   -4.70119   -2.143326 H        1 UNL1     0.0317
     88 H         -7.237262   -4.926973   -3.003432 H        1 UNL1     0.0429
     89 H         -7.045326   -4.538295   -4.714667 H        1 UNL1     0.0429
     90 H         -6.601437   -7.181559   -4.923966 H        1 UNL1     0.0308
     91 H         -7.994757   -6.916863   -2.211315 H        1 UNL1     0.0233
     92 H         -8.152308   -8.37705   -3.220536 H        1 UNL1     0.0233
     93 H         -6.586298   -7.895878   -2.603536 H        1 UNL1     0.0233
     94 H         -9.186747   -7.462588   -4.999825 H        1 UNL1     0.0233
     95 H         -9.204722   -5.717164   -4.70402 H        1 UNL1     0.0233
     96 H         -8.385319   -6.36585   -6.143387 H        1 UNL1     0.0233
     97 H         4.342808   -8.92497   -7.476895 H        1 UNL1     0.0280
     98 H         5.04218   -7.752176   -6.394019 H        1 UNL1     0.0280
     99 H         4.974759   -9.473891   -5.913516 H        1 UNL1     0.0280
     100 H         1.277435   -10.845851   -6.862528 H        1 UNL1     0.2922
     101 H         1.141969   -5.683446   1.73023 H        1 UNL1     0.0236
     102 H         -0.261747   -6.770895   2.066529 H        1 UNL1     0.0236
     103 H         -0.306806   -5.083805   2.475421 H        1 UNL1     0.0236
     104 H         -1.419904   -2.506606   1.735718 H        1 UNL1     0.2098
     105 H         -0.128094   -1.088563   -1.345144 H        1 UNL1     0.0234
     106 H         -1.445774   -0.860343   -0.160774 H        1 UNL1     0.0234
     107 H         0.0   0.0   0.0 H        1 UNL1     0.0234
     108 H         2.231636   -3.396991   0.503308 H        1 UNL1     0.2098
     109 H         0.354315   -0.504828   -3.188946 H        1 UNL1     0.0234
     110 H         1.390068   -1.857186   -3.746751 H        1 UNL1     0.0234
     111 H         0.739267   -1.857285   -2.145095 H        1 UNL1     0.0234
     112 H         0.788124   0.679549   1.434669 H        1 UNL1     0.0342
     113 H         -0.907371   1.246743   1.230156 H        1 UNL1     0.0342
     114 H         -0.211331   0.085   0.097084 H        1 UNL1     0.0342
     115 H         4.667782   -0.73502   0.964097 H        1 UNL1     0.0234
     116 H         4.721166   0.674599   -0.099346 H        1 UNL1     0.0234
     117 H         4.304591   0.790514   1.623058 H        1 UNL1     0.0234
     118 H         2.219735   -4.635134   -5.690954 H        1 UNL1     0.0309
     119 H         3.174198   -3.405346   -4.80513 H        1 UNL1     0.0309
     120 H         3.932777   -4.557786   -5.881511 H        1 UNL1     0.0309
     121 H         5.376365   0.597136   -1.235247 H        1 UNL1     0.0524
     122 H         6.516445   -0.673384   -0.77389 H        1 UNL1     0.0524
     123 H         6.090655   -0.45208   -2.489544 H        1 UNL1     0.0524
@<TRIPOS>BOND
     1     1     2    1
     2     1    42    1
     3     2     3    2
     4     3     4    1
     5     4     5    2
     6     5     7    1
     7     6    75    1
     8     6    76    1
     9     6    77    1
    10     7     9   am
    11     9    10    1
    12    10    11    2
    13    10    43    1
    14    11    14    1
    15    11    15    1
    16    12    13   ar
    17    12    27   ar
    18    12    43    1
    19    13    14    1
    20    13    30   ar
    21    14    17    2
    22    15    16    1
    23    16    17    1
    24    16    18    1
    25    16    22    1
    26    18    19    1
    27    19    20    1
    28    20    21    1
    29    21    22    1
    30    23    24    1
    31    23    88    1
    32    23    89    1
    33    24    25    1
    34    24    26    1
    35    24    90    1
    36    25    91    1
    37    25    92    1
    38    25    93    1
    39    26    94    1
    40    26    95    1
    41    26    96    1
    42    27    28   ar
    43    28    29   ar
    44    29    30   ar
    45    29    31    1
    46    30    33    1
    47    31    32    1
    48    32    33    1
    49    32    35    1
    50    34    97    1
    51    34    98    1
    52    34    99    1
    53    35    61    1
    54    36    37    1
    55    36    60    1
    56    37    38    1
    57    38    39    1
    58    39    40    1
    59    40    41    1
    60    41    42    1
    61    45   100    1
    62    47   101    1
    63    47   102    1
    64    47   103    1
    65    48   104    1
    66    49   105    1
    67    49   106    1
    68    49   107    1
    69    50   108    1
    70    51    59    1
    71    52   109    1
    72    52   110    1
    73    52   111    1
    74    53    54    1
    75    54    55    2
    76    54    56    1
    77    56   112    1
    78    56   113    1
    79    56   114    1
    80    57   115    1
    81    57   116    1
    82    57   117    1
    83    58   118    1
    84    58   119    1
    85    58   120    1
    86    59   121    1
    87    59   122    1
    88    59   123    1
    89    60    61    2
    90     1    47    1
    91     1    62    1
    92     2    63    1
    93     3    64    1
    94     4    65    1
    95     5     6    1
    96     7     8    2
    97     9    78    1
    98    15    79    1
    99    18    80    1
   100    18    81    1
   101    19    82    1
   102    19    83    1
   103    20    23    1
   104    21    84    1
   105    21    85    1
   106    22    86    1
   107    22    87    1
   108    27    45    1
   109    28    34    1
   110    32    58    1
   111    33    46    2
   112    36    51    1
   113    36    66    1
   114    37    52    1
   115    37    67    1
   116    38    53    1
   117    38    68    1
   118    42    48    1
   119    42    72    1
   120    43    44    2
   121    60    73    1
   122    61    74    1
   123    39    69    1
   124    39    57    1
   125    40    70    1
   126    40    50    1
   127    41    71    1
   128    41    49    1
