@<TRIPOS>MOLECULE
*****
 123 128 0 0 0
SMALL
GASTEIGER

@<TRIPOS>ATOM
     1 C         3.368225   -4.221864   0.917976 C.3        1 UNL1     0.0009
     2 C         4.206306   -5.703601   0.183733 C.2        1 UNL1     -0.0787
     3 C         4.287234   -7.137049   -0.002604 C.2        1 UNL1     -0.0649
     4 C         5.346107   -7.998002   -1.004555 C.2        1 UNL1     -0.0542
     5 C         5.5705   -9.226381   -1.673741 C.2        1 UNL1     0.0115
     6 C         5.069478   -10.690023   -1.815349 C.3        1 UNL1     -0.0348
     7 C         6.641974   -9.275969   -2.868092 C.2        1 UNL1     0.2441
     8 O         7.767875   -9.735007   -2.733345 O.2        1 UNL1     -0.2702
     9 N         6.11692   -8.998597   -4.142272 N.am        1 UNL1     -0.2772
     10 C         6.147059   -7.64542   -4.389911 C.2        1 UNL1     0.1049
     11 C         5.145296   -6.940821   -3.895711 C.2        1 UNL1     0.0801
     12 C         7.647426   -5.645785   -4.302184 C.ar        1 UNL1     0.0753
     13 C         6.600202   -4.98938   -3.580337 C.ar        1 UNL1     0.0305
     14 C         5.265212   -5.572921   -3.469279 C.2        1 UNL1     0.0924
     15 N         3.981124   -7.350334   -3.363234 N.pl3        1 UNL1     -0.3170
     16 C         3.16785   -6.185305   -3.136194 C.3        1 UNL1     0.1275
     17 N         4.159587   -5.066374   -2.930829 N.2        1 UNL1     -0.2557
     18 C         2.445522   -5.87624   -4.444026 C.3        1 UNL1     0.0016
     19 C         1.668386   -7.110322   -4.873781 C.3        1 UNL1     0.0026
     20 N         0.722511   -7.457203   -3.822105 N.3        1 UNL1     -0.3018
     21 C         1.318638   -7.712281   -2.509117 C.3        1 UNL1     0.0026
     22 C         2.09045   -6.458233   -2.094912 C.3        1 UNL1     0.0016
     23 C         -0.266428   -8.426383   -4.250278 C.3        1 UNL1     0.0012
     24 C         -1.244785   -7.791447   -5.250993 C.3        1 UNL1     -0.0339
     25 C         -0.521712   -6.838313   -6.216787 C.3        1 UNL1     -0.0615
     26 C         -2.002273   -8.875435   -5.997962 C.3        1 UNL1     -0.0615
     27 C         8.879611   -5.029219   -4.506349 C.ar        1 UNL1     0.1347
     28 C         9.167186   -3.747451   -4.072273 C.ar        1 UNL1     0.0342
     29 C         8.138394   -3.139581   -3.321778 C.ar        1 UNL1     0.1435
     30 C         6.91205   -3.759261   -3.078267 C.ar        1 UNL1     0.0774
     31 O         8.223338   -1.851469   -2.923584 O.3        1 UNL1     -0.4436
     32 C         6.869151   -1.470161   -2.637829 C.3        1 UNL1     0.3143
     33 C         6.143504   -2.769517   -2.352656 C.2        1 UNL1     0.2504
     34 C         10.365449   -2.930498   -4.46832 C.3        1 UNL1     -0.0327
     35 O         6.885736   -0.724381   -1.414396 O.2        1 UNL1     -0.4528
     36 C         3.997127   1.72679   -1.650594 C.3        1 UNL1     0.0854
     37 C         2.463357   1.440015   -1.88045 C.3        1 UNL1     0.0236
     38 C         1.48637   2.056914   -0.768391 C.3        1 UNL1     0.1131
     39 C         1.775527   1.793017   0.764259 C.3        1 UNL1     0.0200
     40 C         2.215866   0.27295   1.291454 C.3        1 UNL1     0.0661
     41 C         1.417866   -1.177283   0.920466 C.3        1 UNL1     0.0091
     42 C         2.075367   -2.876669   0.707904 C.3        1 UNL1     0.0661
     43 C         7.347503   -6.968967   -4.903429 C.2        1 UNL1     0.2131
     44 O         7.972925   -7.442375   -5.834809 O.2        1 UNL1     -0.2851
     45 O         9.860334   -5.754756   -5.179562 O.3        1 UNL1     -0.5056
     46 O         5.164576   -2.950355   -1.663561 O.2        1 UNL1     -0.2836
     47 C         3.688834   -4.116684   2.433274 C.3        1 UNL1     -0.0566
     48 O         1.041986   -3.506244   1.565152 O.3        1 UNL1     -0.3909
     49 C         0.460081   -0.92848   -0.223316 C.3        1 UNL1     -0.0577
     50 O         3.614393   0.09385   1.192623 O.3        1 UNL1     -0.3910
     51 O         4.333629   2.330223   -0.421746 O.3        1 UNL1     -0.3753
     52 C         2.22301   0.027599   -2.506761 C.3        1 UNL1     -0.0564
     53 O         0.043863   2.079063   -1.181922 O.3        1 UNL1     -0.4608
     54 C         -1.023786   1.842776   -0.355953 C.2        1 UNL1     0.3042
     55 O         -1.73649   0.840318   -0.324836 O.2        1 UNL1     -0.2512
     56 C         -1.269682   2.941689   0.63835 C.3        1 UNL1     0.0332
     57 C         2.602436   3.043633   1.321354 C.3        1 UNL1     -0.0567
     58 C         6.302984   -0.858026   -3.940241 C.3        1 UNL1     0.0210
     59 C         4.728192   3.698317   -0.513968 C.3        1 UNL1     0.0372
     60 C         4.88814   0.544882   -1.806635 C.2        1 UNL1     -0.0208
     61 C         5.902256   0.121094   -1.051177 C.2        1 UNL1     0.0882
     62 H         4.091087   -3.580176   0.399886 H        1 UNL1     0.0365
     63 H         5.065413   -5.233167   -0.299069 H        1 UNL1     0.0576
     64 H         3.521243   -7.809479   0.390085 H        1 UNL1     0.0615
     65 H         6.106986   -7.260626   -1.274412 H        1 UNL1     0.0622
     66 H         4.272268   2.420219   -2.457749 H        1 UNL1     0.0645
     67 H         2.205561   2.051464   -2.762624 H        1 UNL1     0.0362
     68 H         1.68548   3.128407   -0.922601 H        1 UNL1     0.0741
     69 H         0.872257   1.986811   1.327247 H        1 UNL1     0.0359
     70 H         2.027381   0.385351   2.376304 H        1 UNL1     0.0600
     71 H         0.71999   -1.238845   1.77845 H        1 UNL1     0.0348
     72 H         2.840877   -2.323598   1.271306 H        1 UNL1     0.0602
     73 H         4.693986   0.082245   -2.742327 H        1 UNL1     0.0628
     74 H         6.131002   0.502689   -0.055537 H        1 UNL1     0.1022
     75 H         4.914871   -11.150466   -0.809803 H        1 UNL1     0.0279
     76 H         4.099233   -10.827132   -2.287467 H        1 UNL1     0.0279
     77 H         5.828433   -11.359528   -2.245988 H        1 UNL1     0.0279
     78 H         5.144332   -9.29599   -4.183595 H        1 UNL1     0.1553
     79 H         3.59321   -8.26433   -3.508375 H        1 UNL1     0.1484
     80 H         1.780784   -5.017474   -4.29102 H        1 UNL1     0.0317
     81 H         3.156855   -5.586774   -5.224965 H        1 UNL1     0.0317
     82 H         2.336786   -7.954338   -5.099147 H        1 UNL1     0.0428
     83 H         1.162503   -6.868605   -5.809038 H        1 UNL1     0.0428
     84 H         0.581647   -7.891882   -1.720194 H        1 UNL1     0.0428
     85 H         1.935539   -8.621538   -2.509941 H        1 UNL1     0.0428
     86 H         2.398831   -6.629958   -1.080319 H        1 UNL1     0.0317
     87 H         1.404309   -5.606613   -2.010934 H        1 UNL1     0.0317
     88 H         0.257941   -9.251522   -4.749755 H        1 UNL1     0.0429
     89 H         -0.800322   -8.856594   -3.393161 H        1 UNL1     0.0429
     90 H         -2.002614   -7.22174   -4.700228 H        1 UNL1     0.0308
     91 H         0.536914   -7.09742   -6.313108 H        1 UNL1     0.0233
     92 H         -0.988081   -6.862176   -7.20448 H        1 UNL1     0.0233
     93 H         -0.56465   -5.794327   -5.883493 H        1 UNL1     0.0233
     94 H         -2.65164   -8.427283   -6.757776 H        1 UNL1     0.0233
     95 H         -1.298476   -9.540757   -6.505879 H        1 UNL1     0.0233
     96 H         -2.622172   -9.468634   -5.31987 H        1 UNL1     0.0233
     97 H         10.082412   -1.9945   -4.940579 H        1 UNL1     0.0280
     98 H         10.983323   -2.655924   -3.603394 H        1 UNL1     0.0280
     99 H         10.983872   -3.502939   -5.178924 H        1 UNL1     0.0280
     100 H         9.993761   -6.627813   -4.854613 H        1 UNL1     0.2922
     101 H         4.419517   -3.325599   2.600434 H        1 UNL1     0.0236
     102 H         4.003364   -5.06323   2.871573 H        1 UNL1     0.0236
     103 H         2.807746   -3.81299   3.022892 H        1 UNL1     0.0236
     104 H         0.87334   -2.902927   2.315177 H        1 UNL1     0.2098
     105 H         0.936347   -0.838286   -1.196377 H        1 UNL1     0.0234
     106 H         -0.377281   -1.624194   -0.275602 H        1 UNL1     0.0234
     107 H         -0.0   0.0   0.0 H        1 UNL1     0.0234
     108 H         3.792063   -0.861575   1.289388 H        1 UNL1     0.2098
     109 H         2.705011   -0.079578   -3.488545 H        1 UNL1     0.0234
     110 H         2.537804   -0.792547   -1.852538 H        1 UNL1     0.0234
     111 H         1.15509   -0.163003   -2.677534 H        1 UNL1     0.0234
     112 H         -2.118819   2.681903   1.277743 H        1 UNL1     0.0342
     113 H         -0.384718   3.160666   1.233942 H        1 UNL1     0.0342
     114 H         -1.531925   3.853442   0.084183 H        1 UNL1     0.0342
     115 H         2.362341   3.256609   2.372156 H        1 UNL1     0.0234
     116 H         3.685631   2.927381   1.249081 H        1 UNL1     0.0234
     117 H         2.329834   3.999817   0.842458 H        1 UNL1     0.0234
     118 H         6.141969   0.230594   -3.850878 H        1 UNL1     0.0309
     119 H         6.928991   -1.056788   -4.815919 H        1 UNL1     0.0309
     120 H         5.306699   -1.241325   -4.186418 H        1 UNL1     0.0309
     121 H         3.821346   4.301795   -0.542262 H        1 UNL1     0.0524
     122 H         5.316478   4.023903   0.360075 H        1 UNL1     0.0524
     123 H         5.314604   3.860515   -1.413916 H        1 UNL1     0.0524
@<TRIPOS>BOND
     1     1     2    1
     2     1    42    1
     3     2     3    2
     4     3     4    1
     5     4     5    2
     6     5     7    1
     7     6    75    1
     8     6    76    1
     9     6    77    1
    10     7     9   am
    11     9    10    1
    12    10    11    2
    13    10    43    1
    14    11    14    1
    15    11    15    1
    16    12    13   ar
    17    12    27   ar
    18    12    43    1
    19    13    14    1
    20    13    30   ar
    21    14    17    2
    22    15    16    1
    23    16    17    1
    24    16    18    1
    25    16    22    1
    26    18    19    1
    27    19    20    1
    28    20    21    1
    29    21    22    1
    30    23    24    1
    31    23    88    1
    32    23    89    1
    33    24    25    1
    34    24    26    1
    35    24    90    1
    36    25    91    1
    37    25    92    1
    38    25    93    1
    39    26    94    1
    40    26    95    1
    41    26    96    1
    42    27    28   ar
    43    28    29   ar
    44    29    30   ar
    45    29    31    1
    46    30    33    1
    47    31    32    1
    48    32    33    1
    49    32    35    1
    50    34    97    1
    51    34    98    1
    52    34    99    1
    53    35    61    1
    54    36    37    1
    55    36    60    1
    56    37    38    1
    57    38    39    1
    58    39    40    1
    59    40    41    1
    60    41    42    1
    61    45   100    1
    62    47   101    1
    63    47   102    1
    64    47   103    1
    65    48   104    1
    66    49   105    1
    67    49   106    1
    68    49   107    1
    69    50   108    1
    70    51    59    1
    71    52   109    1
    72    52   110    1
    73    52   111    1
    74    53    54    1
    75    54    55    2
    76    54    56    1
    77    56   112    1
    78    56   113    1
    79    56   114    1
    80    57   115    1
    81    57   116    1
    82    57   117    1
    83    58   118    1
    84    58   119    1
    85    58   120    1
    86    59   121    1
    87    59   122    1
    88    59   123    1
    89    60    61    2
    90     1    47    1
    91     1    62    1
    92     2    63    1
    93     3    64    1
    94     4    65    1
    95     5     6    1
    96     7     8    2
    97     9    78    1
    98    15    79    1
    99    18    80    1
   100    18    81    1
   101    19    82    1
   102    19    83    1
   103    20    23    1
   104    21    84    1
   105    21    85    1
   106    22    86    1
   107    22    87    1
   108    27    45    1
   109    28    34    1
   110    32    58    1
   111    33    46    2
   112    36    51    1
   113    36    66    1
   114    37    52    1
   115    37    67    1
   116    38    53    1
   117    38    68    1
   118    42    48    1
   119    42    72    1
   120    43    44    2
   121    60    73    1
   122    61    74    1
   123    39    69    1
   124    39    57    1
   125    40    70    1
   126    40    50    1
   127    41    71    1
   128    41    49    1
