@<TRIPOS>MOLECULE
*****
 123 128 0 0 0
SMALL
GASTEIGER

@<TRIPOS>ATOM
     1 C         5.151903   0.552381   1.7754 C.3        1 UNL1     0.0009
     2 C         6.905417   0.932531   1.308807 C.2        1 UNL1     -0.0787
     3 C         8.248106   0.486967   1.001061 C.2        1 UNL1     -0.0649
     4 C         9.558053   1.419392   0.470986 C.2        1 UNL1     -0.0542
     5 C         10.817465   1.389737   -0.177149 C.2        1 UNL1     0.0115
     6 C         11.936917   0.451224   -0.705679 C.3        1 UNL1     -0.0348
     7 C         11.417369   2.75475   -0.771995 C.2        1 UNL1     0.2441
     8 O         12.297168   3.39452   -0.212375 O.2        1 UNL1     -0.2702
     9 N         11.052442   3.028321   -2.101709 N.am        1 UNL1     -0.2772
     10 C         9.86592   3.724004   -2.140614 C.2        1 UNL1     0.1049
     11 C         8.764115   3.000755   -2.056007 C.2        1 UNL1     0.0801
     12 C         8.691295   5.699155   -1.1525 C.ar        1 UNL1     0.0753
     13 C         7.594426   4.817439   -0.891609 C.ar        1 UNL1     0.0305
     14 C         7.545366   3.469875   -1.454382 C.2        1 UNL1     0.0924
     15 N         8.594891   1.670506   -2.147273 N.pl3        1 UNL1     -0.3170
     16 C         7.18038   1.40734   -2.15981 C.3        1 UNL1     0.1275
     17 N         6.574388   2.562536   -1.40085 N.2        1 UNL1     -0.2557
     18 C         6.706098   1.55316   -3.602548 C.3        1 UNL1     0.0016
     19 C         7.525871   0.621113   -4.480529 C.3        1 UNL1     0.0026
     20 N         7.348791   -0.74444   -4.006254 N.3        1 UNL1     -0.3018
     21 C         7.72046   -0.970048   -2.607922 C.3        1 UNL1     0.0026
     22 C         6.88174   -0.02694   -1.743634 C.3        1 UNL1     0.0016
     23 C         7.839773   -1.735043   -4.943423 C.3        1 UNL1     0.0012
     24 C         6.937134   -1.795162   -6.185754 C.3        1 UNL1     -0.0339
     25 C         7.536441   -0.997249   -7.355464 C.3        1 UNL1     -0.0615
     26 C         6.676666   -3.241091   -6.570754 C.3        1 UNL1     -0.0615
     27 C         8.674872   7.021025   -0.713743 C.ar        1 UNL1     0.1347
     28 C         7.604215   7.583649   -0.04203 C.ar        1 UNL1     0.0342
     29 C         6.556503   6.683509   0.246434 C.ar        1 UNL1     0.1435
     30 C         6.574883   5.347244   -0.155162 C.ar        1 UNL1     0.0774
     31 O         5.397267   7.104651   0.797631 O.3        1 UNL1     -0.4436
     32 C         4.455234   6.062696   0.501359 C.3        1 UNL1     0.3143
     33 C         5.295233   4.822273   0.2734 C.2        1 UNL1     0.2504
     34 C         7.408938   9.048101   0.236084 C.3        1 UNL1     -0.0327
     35 O         3.686284   5.833446   1.688546 O.2        1 UNL1     -0.4528
     36 C         0.271456   4.669998   0.50811 C.3        1 UNL1     0.0854
     37 C         -0.100644   3.441665   -0.408549 C.3        1 UNL1     0.0236
     38 C         -1.165116   2.423354   0.225239 C.3        1 UNL1     0.1131
     39 C         -0.934192   1.852337   1.68225 C.3        1 UNL1     0.0200
     40 C         0.578611   1.33374   2.156511 C.3        1 UNL1     0.0661
     41 C         1.579486   0.269219   1.294736 C.3        1 UNL1     0.0091
     42 C         3.408604   0.181403   1.185107 C.3        1 UNL1     0.0661
     43 C         9.808201   5.184928   -1.983374 C.2        1 UNL1     0.2131
     44 O         10.578975   5.903183   -2.59391 O.2        1 UNL1     -0.2851
     45 O         9.801779   7.79961   -0.969331 O.3        1 UNL1     -0.5056
     46 O         4.985075   3.66267   0.431443 O.2        1 UNL1     -0.2836
     47 C         5.064808   0.166874   3.276659 C.3        1 UNL1     -0.0566
     48 O         3.465797   -1.282824   1.412894 O.3        1 UNL1     -0.3909
     49 C         1.045865   0.129946   -0.113577 C.3        1 UNL1     -0.0577
     50 O         1.341288   2.410281   2.663567 O.3        1 UNL1     -0.3910
     51 O         -0.233981   4.63241   1.823614 O.3        1 UNL1     -0.3753
     52 C         1.124102   2.948904   -1.246483 C.3        1 UNL1     -0.0564
     53 O         -1.761573   1.477862   -0.776065 O.3        1 UNL1     -0.4608
     54 C         -2.383231   0.293296   -0.478955 C.2        1 UNL1     0.3042
     55 O         -1.98394   -0.843161   -0.729697 O.2        1 UNL1     -0.2512
     56 C         -3.664242   0.462046   0.287366 C.3        1 UNL1     0.0332
     57 C         -1.758546   2.77323   2.69742 C.3        1 UNL1     -0.0567
     58 C         3.773392   6.455076   -0.830053 C.3        1 UNL1     0.0210
     59 C         -0.423191   5.910161   2.429763 C.3        1 UNL1     0.0372
     60 C         1.728136   4.955678   0.615957 C.2        1 UNL1     -0.0208
     61 C         2.47627   5.241994   1.682288 C.2        1 UNL1     0.0882
     62 H         4.92348   1.623224   1.713525 H        1 UNL1     0.0365
     63 H         6.886193   2.024332   1.317167 H        1 UNL1     0.0576
     64 H         8.496573   -0.574224   0.928638 H        1 UNL1     0.0615
     65 H         9.238464   2.448096   0.658379 H        1 UNL1     0.0622
     66 H         -0.16896   5.538361   -0.001816 H        1 UNL1     0.0645
     67 H         -0.686694   3.888351   -1.230484 H        1 UNL1     0.0362
     68 H         -2.033903   3.093964   0.308981 H        1 UNL1     0.0741
     69 H         -1.539442   0.964503   1.808078 H        1 UNL1     0.0359
     70 H         0.305611   0.74247   3.051458 H        1 UNL1     0.0600
     71 H         1.266621   -0.694783   1.741696 H        1 UNL1     0.0348
     72 H         3.186708   0.762073   2.092245 H        1 UNL1     0.0602
     73 H         2.142156   5.032087   -0.358722 H        1 UNL1     0.0628
     74 H         2.144923   5.132385   2.715454 H        1 UNL1     0.1022
     75 H         11.659006   -0.618619   -0.546822 H        1 UNL1     0.0279
     76 H         12.134327   0.485721   -1.774748 H        1 UNL1     0.0279
     77 H         12.864605   0.523605   -0.119285 H        1 UNL1     0.0279
     78 H         10.911848   2.154528   -2.604497 H        1 UNL1     0.1553
     79 H         9.266939   1.050629   -2.560838 H        1 UNL1     0.1484
     80 H         5.636986   1.314023   -3.653339 H        1 UNL1     0.0317
     81 H         6.812636   2.58746   -3.946821 H        1 UNL1     0.0317
     82 H         8.589354   0.901851   -4.490604 H        1 UNL1     0.0428
     83 H         7.172559   0.7424   -5.504986 H        1 UNL1     0.0428
     84 H         7.503298   -1.98275   -2.254246 H        1 UNL1     0.0428
     85 H         8.801956   -0.858212   -2.449252 H        1 UNL1     0.0428
     86 H         7.081509   -0.311203   -0.727133 H        1 UNL1     0.0317
     87 H         5.815838   -0.254867   -1.866104 H        1 UNL1     0.0317
     88 H         8.848363   -1.436924   -5.25833 H        1 UNL1     0.0429
     89 H         7.928924   -2.721591   -4.470614 H        1 UNL1     0.0429
     90 H         5.957214   -1.36981   -5.93868 H        1 UNL1     0.0308
     91 H         8.53716   -1.357911   -7.611566 H        1 UNL1     0.0233
     92 H         6.894781   -1.063544   -8.237216 H        1 UNL1     0.0233
     93 H         7.632219   0.071061   -7.126603 H        1 UNL1     0.0233
     94 H         6.199504   -3.28966   -7.555535 H        1 UNL1     0.0233
     95 H         7.621522   -3.788899   -6.626581 H        1 UNL1     0.0233
     96 H         6.024157   -3.735732   -5.845819 H        1 UNL1     0.0233
     97 H         6.466093   9.245451   0.737407 H        1 UNL1     0.0280
     98 H         8.189454   9.452058   0.894012 H        1 UNL1     0.0280
     99 H         7.419609   9.608618   -0.713022 H        1 UNL1     0.0280
     100 H         9.625691   8.607819   -1.418123 H        1 UNL1     0.2922
     101 H         4.02416   -0.000785   3.553425 H        1 UNL1     0.0236
     102 H         5.55164   0.88729   3.933149 H        1 UNL1     0.0236
     103 H         5.568468   -0.791149   3.488112 H        1 UNL1     0.0236
     104 H         3.607451   -1.427282   2.368947 H        1 UNL1     0.2098
     105 H         1.206419   1.001692   -0.742936 H        1 UNL1     0.0234
     106 H         1.362256   -0.774467   -0.633058 H        1 UNL1     0.0234
     107 H         0.0   -0.0   0.0 H        1 UNL1     0.0234
     108 H         1.501195   3.026637   1.923092 H        1 UNL1     0.2098
     109 H         1.968685   2.647709   -0.61113 H        1 UNL1     0.0234
     110 H         0.87479   2.134334   -1.935004 H        1 UNL1     0.0234
     111 H         1.511971   3.74109   -1.900659 H        1 UNL1     0.0234
     112 H         -4.096832   -0.518163   0.50963 H        1 UNL1     0.0342
     113 H         -3.523347   1.042489   1.197903 H        1 UNL1     0.0342
     114 H         -4.375097   1.007539   -0.34847 H        1 UNL1     0.0342
     115 H         -2.83   2.790876   2.454803 H        1 UNL1     0.0234
     116 H         -1.663636   2.475885   3.743664 H        1 UNL1     0.0234
     117 H         -1.505679   3.84494   2.623671 H        1 UNL1     0.0234
     118 H         2.944008   7.167585   -0.676888 H        1 UNL1     0.0309
     119 H         4.471252   6.87023   -1.564111 H        1 UNL1     0.0309
     120 H         3.288051   5.604193   -1.32051 H        1 UNL1     0.0309
     121 H         0.556684   6.376394   2.528895 H        1 UNL1     0.0524
     122 H         -1.047508   6.57762   1.812702 H        1 UNL1     0.0524
     123 H         -0.885503   5.798102   3.406393 H        1 UNL1     0.0524
@<TRIPOS>BOND
     1     1     2    1
     2     1    42    1
     3     2     3    2
     4     3     4    1
     5     4     5    2
     6     5     7    1
     7     6    75    1
     8     6    76    1
     9     6    77    1
    10     7     9   am
    11     9    10    1
    12    10    11    2
    13    10    43    1
    14    11    14    1
    15    11    15    1
    16    12    13   ar
    17    12    27   ar
    18    12    43    1
    19    13    14    1
    20    13    30   ar
    21    14    17    2
    22    15    16    1
    23    16    17    1
    24    16    18    1
    25    16    22    1
    26    18    19    1
    27    19    20    1
    28    20    21    1
    29    21    22    1
    30    23    24    1
    31    23    88    1
    32    23    89    1
    33    24    25    1
    34    24    26    1
    35    24    90    1
    36    25    91    1
    37    25    92    1
    38    25    93    1
    39    26    94    1
    40    26    95    1
    41    26    96    1
    42    27    28   ar
    43    28    29   ar
    44    29    30   ar
    45    29    31    1
    46    30    33    1
    47    31    32    1
    48    32    33    1
    49    32    35    1
    50    34    97    1
    51    34    98    1
    52    34    99    1
    53    35    61    1
    54    36    37    1
    55    36    60    1
    56    37    38    1
    57    38    39    1
    58    39    40    1
    59    40    41    1
    60    41    42    1
    61    45   100    1
    62    47   101    1
    63    47   102    1
    64    47   103    1
    65    48   104    1
    66    49   105    1
    67    49   106    1
    68    49   107    1
    69    50   108    1
    70    51    59    1
    71    52   109    1
    72    52   110    1
    73    52   111    1
    74    53    54    1
    75    54    55    2
    76    54    56    1
    77    56   112    1
    78    56   113    1
    79    56   114    1
    80    57   115    1
    81    57   116    1
    82    57   117    1
    83    58   118    1
    84    58   119    1
    85    58   120    1
    86    59   121    1
    87    59   122    1
    88    59   123    1
    89    60    61    2
    90     1    47    1
    91     1    62    1
    92     2    63    1
    93     3    64    1
    94     4    65    1
    95     5     6    1
    96     7     8    2
    97     9    78    1
    98    15    79    1
    99    18    80    1
   100    18    81    1
   101    19    82    1
   102    19    83    1
   103    20    23    1
   104    21    84    1
   105    21    85    1
   106    22    86    1
   107    22    87    1
   108    27    45    1
   109    28    34    1
   110    32    58    1
   111    33    46    2
   112    36    51    1
   113    36    66    1
   114    37    52    1
   115    37    67    1
   116    38    53    1
   117    38    68    1
   118    42    48    1
   119    42    72    1
   120    43    44    2
   121    60    73    1
   122    61    74    1
   123    39    69    1
   124    39    57    1
   125    40    70    1
   126    40    50    1
   127    41    71    1
   128    41    49    1
