@<TRIPOS>MOLECULE
*****
 123 128 0 0 0
SMALL
GASTEIGER

@<TRIPOS>ATOM
     1 C         2.657336   -3.603409   -2.786526 C.3        1 UNL1     0.0009
     2 C         2.403333   -4.823677   -4.15892 C.2        1 UNL1     -0.0787
     3 C         2.346802   -6.191981   -4.628594 C.2        1 UNL1     -0.0649
     4 C         1.90014   -6.747413   -6.164285 C.2        1 UNL1     -0.0542
     5 C         1.446929   -7.864527   -6.908419 C.2        1 UNL1     0.0115
     6 C         1.201406   -9.39738   -6.850092 C.3        1 UNL1     -0.0348
     7 C         0.782796   -7.620446   -8.34937 C.2        1 UNL1     0.2441
     8 O         1.380589   -7.813992   -9.398993 O.2        1 UNL1     -0.2702
     9 N         -0.60866   -7.421333   -8.330473 N.am        1 UNL1     -0.2772
     10 C         -0.900664   -6.08869   -8.151257 C.2        1 UNL1     0.1049
     11 C         -0.887219   -5.652407   -6.904782 C.2        1 UNL1     0.0801
     12 C         -0.33725   -3.803296   -8.997941 C.ar        1 UNL1     0.0753
     13 C         -0.130725   -3.433195   -7.630835 C.ar        1 UNL1     0.0305
     14 C         -0.527168   -4.311174   -6.532182 C.2        1 UNL1     0.0924
     15 N         -0.839761   -6.338413   -5.749935 N.pl3        1 UNL1     -0.3170
     16 C         -1.022175   -5.40068   -4.674001 C.3        1 UNL1     0.1275
     17 N         -0.503245   -4.093054   -5.220397 N.2        1 UNL1     -0.2557
     18 C         -2.524784   -5.214662   -4.486204 C.3        1 UNL1     0.0016
     19 C         -3.157153   -6.576315   -4.246202 C.3        1 UNL1     0.0026
     20 N         -2.551007   -7.171621   -3.063313 N.3        1 UNL1     -0.3018
     21 C         -1.097001   -7.33427   -3.124778 C.3        1 UNL1     0.0026
     22 C         -0.482129   -5.953814   -3.361774 C.3        1 UNL1     0.0016
     23 C         -3.281372   -8.324264   -2.574819 C.3        1 UNL1     0.0012
     24 C         -3.559246   -9.310772   -3.719959 C.3        1 UNL1     -0.0339
     25 C         -2.930303   -10.686087   -3.442479 C.3        1 UNL1     -0.0615
     26 C         -5.05459   -9.418706   -3.963019 C.3        1 UNL1     -0.0615
     27 C         -0.068865   -2.913136   -10.035102 C.ar        1 UNL1     0.1347
     28 C         0.369846   -1.617528   -9.827782 C.ar        1 UNL1     0.0342
     29 C         0.612711   -1.291523   -8.476522 C.ar        1 UNL1     0.1435
     30 C         0.382853   -2.184909   -7.429504 C.ar        1 UNL1     0.0774
     31 O         0.937543   -0.034807   -8.102151 O.3        1 UNL1     -0.4436
     32 C         0.638308   0.01438   -6.698972 C.3        1 UNL1     0.3143
     33 C         0.684728   -1.426859   -6.23326 C.2        1 UNL1     0.2504
     34 C         0.437605   -0.532764   -10.866433 C.3        1 UNL1     -0.0327
     35 O         1.722458   0.695749   -6.055849 O.2        1 UNL1     -0.4528
     36 C         0.216303   2.426572   -3.031971 C.3        1 UNL1     0.0854
     37 C         -0.588348   1.804949   -1.826299 C.3        1 UNL1     0.0236
     38 C         0.00566   2.137499   -0.374297 C.3        1 UNL1     0.1131
     39 C         1.539084   1.88731   -0.077169 C.3        1 UNL1     0.0200
     40 C         2.283864   0.489319   -0.600009 C.3        1 UNL1     0.0661
     41 C         1.709338   -1.089634   -0.36669 C.3        1 UNL1     0.0091
     42 C         1.87351   -2.583353   -1.418951 C.3        1 UNL1     0.0661
     43 C         -0.931568   -5.135488   -9.270544 C.2        1 UNL1     0.2131
     44 O         -1.508301   -5.416147   -10.305603 O.2        1 UNL1     -0.2851
     45 O         -0.253389   -3.367619   -11.339263 O.3        1 UNL1     -0.5056
     46 O         0.936266   -1.854101   -5.128703 O.2        1 UNL1     -0.2836
     47 C         4.166318   -3.486754   -2.441062 C.3        1 UNL1     -0.0566
     48 O         2.282951   -3.466075   -0.2999 O.3        1 UNL1     -0.3909
     49 C         0.266635   -1.022618   0.082323 C.3        1 UNL1     -0.0577
     50 O         2.760344   0.639665   -1.922161 O.3        1 UNL1     -0.3910
     51 O         1.440895   3.042641   -2.702936 O.3        1 UNL1     -0.3753
     52 C         -1.176803   0.40061   -2.181971 C.3        1 UNL1     -0.0564
     53 O         -0.948469   1.844424   0.746448 O.3        1 UNL1     -0.4608
     54 C         -0.602263   1.674172   2.061396 C.2        1 UNL1     0.3042
     55 O         -0.975118   2.342938   3.0245 O.2        1 UNL1     -0.2512
     56 C         0.2903   0.489595   2.299769 C.3        1 UNL1     0.0332
     57 C         2.306911   3.271485   -0.306683 C.3        1 UNL1     -0.0567
     58 C         -0.814478   0.530751   -6.579377 C.3        1 UNL1     0.0210
     59 C         2.515404   2.755787   -3.59681 C.3        1 UNL1     0.0372
     60 C         0.495633   1.487474   -4.152342 C.2        1 UNL1     -0.0208
     61 C         1.615216   1.278349   -4.846278 C.2        1 UNL1     0.0882
     62 H         2.434111   -2.793347   -3.491282 H        1 UNL1     0.0365
     63 H         2.276434   -4.150309   -5.009181 H        1 UNL1     0.0576
     64 H         2.4398   -7.036936   -3.942656 H        1 UNL1     0.0615
     65 H         1.913858   -5.845261   -6.781873 H        1 UNL1     0.0622
     66 H         -0.452768   3.195581   -3.443085 H        1 UNL1     0.0645
     67 H         -1.53358   2.374956   -1.812555 H        1 UNL1     0.0362
     68 H         -0.117454   3.23128   -0.371282 H        1 UNL1     0.0741
     69 H         1.683887   1.846697   0.994181 H        1 UNL1     0.0359
     70 H         3.195664   0.513069   0.02698 H        1 UNL1     0.0600
     71 H         2.220577   -1.34302   0.582724 H        1 UNL1     0.0348
     72 H         2.662502   -1.891916   -1.748683 H        1 UNL1     0.0602
     73 H         -0.411928   1.029535   -4.458728 H        1 UNL1     0.0628
     74 H         2.596061   1.663061   -4.564895 H        1 UNL1     0.1022
     75 H         1.143274   -9.82456   -7.880225 H        1 UNL1     0.0279
     76 H         1.984556   -9.997042   -6.39167 H        1 UNL1     0.0279
     77 H         0.208587   -9.654219   -6.452543 H        1 UNL1     0.0279
     78 H         -1.016689   -7.931965   -7.550189 H        1 UNL1     0.1553
     79 H         -1.074879   -7.310623   -5.669558 H        1 UNL1     0.1484
     80 H         -2.698362   -4.537843   -3.640892 H        1 UNL1     0.0317
     81 H         -2.973142   -4.739544   -5.365345 H        1 UNL1     0.0317
     82 H         -3.04921   -7.235124   -5.120405 H        1 UNL1     0.0428
     83 H         -4.228634   -6.420712   -4.116713 H        1 UNL1     0.0428
     84 H         -0.657822   -7.708732   -2.19488 H        1 UNL1     0.0428
     85 H         -0.800251   -8.077106   -3.878072 H        1 UNL1     0.0428
     86 H         0.579369   -6.089726   -3.268299 H        1 UNL1     0.0317
     87 H         -0.727018   -5.286158   -2.526692 H        1 UNL1     0.0317
     88 H         -2.660695   -8.828107   -1.822359 H        1 UNL1     0.0429
     89 H         -4.21192   -8.02455   -2.075795 H        1 UNL1     0.0429
     90 H         -3.132849   -8.912719   -4.648373 H        1 UNL1     0.0308
     91 H         -2.885391   -10.893644   -2.369164 H        1 UNL1     0.0233
     92 H         -3.498138   -11.477466   -3.937343 H        1 UNL1     0.0233
     93 H         -1.904862   -10.761041   -3.82417 H        1 UNL1     0.0233
     94 H         -5.359814   -10.470581   -3.978265 H        1 UNL1     0.0233
     95 H         -5.601021   -8.920774   -3.157141 H        1 UNL1     0.0233
     96 H         -5.337927   -8.962823   -4.915835 H        1 UNL1     0.0233
     97 H         1.311094   -0.6329   -11.503786 H        1 UNL1     0.0280
     98 H         -0.429305   -0.549838   -11.539806 H        1 UNL1     0.0280
     99 H         0.482573   0.450685   -10.37055 H        1 UNL1     0.0280
     100 H         -1.149697   -3.53429   -11.572662 H        1 UNL1     0.2922
     101 H         4.444783   -4.273027   -1.739715 H        1 UNL1     0.0236
     102 H         4.448269   -2.498176   -2.08023 H        1 UNL1     0.0236
     103 H         4.807277   -3.657695   -3.322052 H        1 UNL1     0.0236
     104 H         3.256467   -3.41966   -0.228613 H        1 UNL1     0.2098
     105 H         -0.422173   -1.596584   -0.532428 H        1 UNL1     0.0234
     106 H         0.107206   -1.24562   1.137207 H        1 UNL1     0.0234
     107 H         0.0   0.0   0.0 H        1 UNL1     0.0234
     108 H         1.984779   0.611328   -2.515005 H        1 UNL1     0.2098
     109 H         -2.176296   0.470607   -2.633441 H        1 UNL1     0.0234
     110 H         -0.521372   -0.188508   -2.832428 H        1 UNL1     0.0234
     111 H         -1.297611   -0.225784   -1.288113 H        1 UNL1     0.0234
     112 H         1.096462   0.763393   2.987143 H        1 UNL1     0.0342
     113 H         -0.263   -0.372174   2.669983 H        1 UNL1     0.0342
     114 H         0.746683   0.205548   1.341544 H        1 UNL1     0.0342
     115 H         1.846559   4.092691   0.259784 H        1 UNL1     0.0234
     116 H         3.365259   3.241579   -0.040122 H        1 UNL1     0.0234
     117 H         2.226374   3.653316   -1.338991 H        1 UNL1     0.0234
     118 H         -0.858924   1.549106   -6.155133 H        1 UNL1     0.0309
     119 H         -1.355663   0.515164   -7.530733 H        1 UNL1     0.0309
     120 H         -1.414594   -0.060868   -5.879409 H        1 UNL1     0.0309
     121 H         3.445779   2.868675   -3.040918 H        1 UNL1     0.0524
     122 H         2.47895   1.721079   -3.976397 H        1 UNL1     0.0524
     123 H         2.496618   3.441291   -4.439322 H        1 UNL1     0.0524
@<TRIPOS>BOND
     1     1     2    1
     2     1    42    1
     3     2     3    2
     4     3     4    1
     5     4     5    2
     6     5     7    1
     7     6    75    1
     8     6    76    1
     9     6    77    1
    10     7     9   am
    11     9    10    1
    12    10    11    2
    13    10    43    1
    14    11    14    1
    15    11    15    1
    16    12    13   ar
    17    12    27   ar
    18    12    43    1
    19    13    14    1
    20    13    30   ar
    21    14    17    2
    22    15    16    1
    23    16    17    1
    24    16    18    1
    25    16    22    1
    26    18    19    1
    27    19    20    1
    28    20    21    1
    29    21    22    1
    30    23    24    1
    31    23    88    1
    32    23    89    1
    33    24    25    1
    34    24    26    1
    35    24    90    1
    36    25    91    1
    37    25    92    1
    38    25    93    1
    39    26    94    1
    40    26    95    1
    41    26    96    1
    42    27    28   ar
    43    28    29   ar
    44    29    30   ar
    45    29    31    1
    46    30    33    1
    47    31    32    1
    48    32    33    1
    49    32    35    1
    50    34    97    1
    51    34    98    1
    52    34    99    1
    53    35    61    1
    54    36    37    1
    55    36    60    1
    56    37    38    1
    57    38    39    1
    58    39    40    1
    59    40    41    1
    60    41    42    1
    61    45   100    1
    62    47   101    1
    63    47   102    1
    64    47   103    1
    65    48   104    1
    66    49   105    1
    67    49   106    1
    68    49   107    1
    69    50   108    1
    70    51    59    1
    71    52   109    1
    72    52   110    1
    73    52   111    1
    74    53    54    1
    75    54    55    2
    76    54    56    1
    77    56   112    1
    78    56   113    1
    79    56   114    1
    80    57   115    1
    81    57   116    1
    82    57   117    1
    83    58   118    1
    84    58   119    1
    85    58   120    1
    86    59   121    1
    87    59   122    1
    88    59   123    1
    89    60    61    2
    90     1    47    1
    91     1    62    1
    92     2    63    1
    93     3    64    1
    94     4    65    1
    95     5     6    1
    96     7     8    2
    97     9    78    1
    98    15    79    1
    99    18    80    1
   100    18    81    1
   101    19    82    1
   102    19    83    1
   103    20    23    1
   104    21    84    1
   105    21    85    1
   106    22    86    1
   107    22    87    1
   108    27    45    1
   109    28    34    1
   110    32    58    1
   111    33    46    2
   112    36    51    1
   113    36    66    1
   114    37    52    1
   115    37    67    1
   116    38    53    1
   117    38    68    1
   118    42    48    1
   119    42    72    1
   120    43    44    2
   121    60    73    1
   122    61    74    1
   123    39    69    1
   124    39    57    1
   125    40    70    1
   126    40    50    1
   127    41    71    1
   128    41    49    1
