@<TRIPOS>MOLECULE
*****
 123 128 0 0 0
SMALL
GASTEIGER

@<TRIPOS>ATOM
     1 C         -0.346472   -1.451832   -4.962484 C.3        1 UNL1     0.0009
     2 C         -1.641066   -1.639531   -6.276194 C.2        1 UNL1     -0.0787
     3 C         -2.406103   -2.477847   -7.175076 C.2        1 UNL1     -0.0649
     4 C         -3.690109   -2.024442   -8.181113 C.2        1 UNL1     -0.0542
     5 C         -4.811546   -2.487667   -8.912467 C.2        1 UNL1     0.0115
     6 C         -5.539945   -3.761264   -9.423063 C.3        1 UNL1     -0.0348
     7 C         -5.9344   -1.432866   -9.363668 C.2        1 UNL1     0.2441
     8 O         -6.018479   -0.997345   -10.503747 O.2        1 UNL1     -0.2702
     9 N         -6.971126   -1.242273   -8.433601 N.am        1 UNL1     -0.2772
     10 C         -6.635852   -0.254242   -7.536546 C.2        1 UNL1     0.1049
     11 C         -5.879497   -0.624145   -6.519039 C.2        1 UNL1     0.0801
     12 C         -5.748777   2.080488   -7.397028 C.ar        1 UNL1     0.0753
     13 C         -4.804609   1.581157   -6.444229 C.ar        1 UNL1     0.0305
     14 C         -4.926097   0.239921   -5.877327 C.2        1 UNL1     0.0924
     15 N         -5.547871   -1.854546   -6.091645 N.pl3        1 UNL1     -0.3170
     16 C         -4.846443   -1.711926   -4.843481 C.3        1 UNL1     0.1275
     17 N         -4.210083   -0.345669   -4.921641 N.2        1 UNL1     -0.2557
     18 C         -5.897781   -1.626971   -3.741132 C.3        1 UNL1     0.0016
     19 C         -6.789172   -2.855886   -3.823472 C.3        1 UNL1     0.0026
     20 N         -5.962339   -4.044727   -3.668452 N.3        1 UNL1     -0.3018
     21 C         -4.882091   -4.182707   -4.64743 C.3        1 UNL1     0.0026
     22 C         -3.996495   -2.939747   -4.544162 C.3        1 UNL1     0.0016
     23 C         -6.739382   -5.245264   -3.432744 C.3        1 UNL1     0.0012
     24 C         -7.162817   -5.883073   -4.765282 C.3        1 UNL1     -0.0339
     25 C         -6.043935   -5.7868   -5.81547 C.3        1 UNL1     -0.0615
     26 C         -7.595705   -7.321335   -4.539921 C.3        1 UNL1     -0.0615
     27 C         -5.69682   3.399544   -7.841447 C.ar        1 UNL1     0.1347
     28 C         -4.774612   4.32031   -7.376933 C.ar        1 UNL1     0.0342
     29 C         -3.824769   3.793289   -6.476261 C.ar        1 UNL1     0.1435
     30 C         -3.842301   2.464784   -6.049663 C.ar        1 UNL1     0.0774
     31 O         -2.929634   4.58859   -5.850772 O.3        1 UNL1     -0.4436
     32 C         -2.491856   3.821697   -4.718916 C.3        1 UNL1     0.3143
     33 C         -2.760556   2.377555   -5.091027 C.2        1 UNL1     0.2504
     34 C         -4.813671   5.804221   -7.614801 C.3        1 UNL1     -0.0327
     35 O         -1.069709   3.971254   -4.627363 O.2        1 UNL1     -0.4528
     36 C         -0.22637   3.664612   -0.939161 C.3        1 UNL1     0.0854
     37 C         -0.53212   2.48131   0.057752 C.3        1 UNL1     0.0236
     38 C         0.749696   1.891067   0.819531 C.3        1 UNL1     0.1131
     39 C         2.030616   1.471241   -0.008273 C.3        1 UNL1     0.0200
     40 C         1.873674   0.616854   -1.432292 C.3        1 UNL1     0.0661
     41 C         0.946441   -0.786559   -1.652021 C.3        1 UNL1     0.0091
     42 C         0.038902   -1.394608   -3.12581 C.3        1 UNL1     0.0661
     43 C         -6.84008   1.172337   -7.828975 C.2        1 UNL1     0.2131
     44 O         -7.892897   1.561996   -8.300654 O.2        1 UNL1     -0.2851
     45 O         -6.624432   3.79304   -8.803807 O.3        1 UNL1     -0.5056
     46 O         -2.194307   1.381023   -4.700973 O.2        1 UNL1     -0.2836
     47 C         1.071224   -1.60069   -5.57727 C.3        1 UNL1     -0.0566
     48 O         0.572893   -2.77451   -3.026605 O.3        1 UNL1     -0.3909
     49 C         0.022805   -0.951895   -0.465827 C.3        1 UNL1     -0.0577
     50 O         1.689167   1.493895   -2.525214 O.3        1 UNL1     -0.3910
     51 O         1.137037   3.939583   -1.16926 O.3        1 UNL1     -0.3753
     52 C         -1.684093   1.562587   -0.46556 C.3        1 UNL1     -0.0564
     53 O         0.403578   1.028588   1.997945 O.3        1 UNL1     -0.4608
     54 C         1.072666   -0.105716   2.376898 C.2        1 UNL1     0.3042
     55 O         1.38675   -0.441479   3.518148 O.2        1 UNL1     -0.2512
     56 C         1.382457   -1.031097   1.234789 C.3        1 UNL1     0.0332
     57 C         3.044003   2.708521   0.010718 C.3        1 UNL1     -0.0567
     58 C         -3.414878   4.213549   -3.541625 C.3        1 UNL1     0.0210
     59 C         1.614611   5.144279   -0.572187 C.3        1 UNL1     0.0372
     60 C         -0.871325   3.543947   -2.275063 C.2        1 UNL1     -0.0208
     61 C         -0.374389   3.745236   -3.496243 C.2        1 UNL1     0.0882
     62 H         -0.562333   -0.377086   -4.930274 H        1 UNL1     0.0365
     63 H         -1.897802   -0.594149   -6.459861 H        1 UNL1     0.0576
     64 H         -2.316462   -3.566326   -7.158188 H        1 UNL1     0.0615
     65 H         -3.640987   -0.932201   -8.190117 H        1 UNL1     0.0622
     66 H         -0.677287   4.548024   -0.465555 H        1 UNL1     0.0645
     67 H         -1.077539   2.963841   0.887355 H        1 UNL1     0.0362
     68 H         1.050735   2.782412   1.390848 H        1 UNL1     0.0741
     69 H         2.636345   0.811499   0.598554 H        1 UNL1     0.0359
     70 H         2.910104   0.245842   -1.54728 H        1 UNL1     0.0600
     71 H         1.711726   -1.55893   -1.440508 H        1 UNL1     0.0348
     72 H         0.769714   -0.663108   -3.500159 H        1 UNL1     0.0602
     73 H         -1.911687   3.375394   -2.146671 H        1 UNL1     0.0628
     74 H         0.686416   3.866674   -3.718017 H        1 UNL1     0.1022
     75 H         -4.920426   -4.670453   -9.231735 H        1 UNL1     0.0279
     76 H         -6.479531   -4.011147   -8.935408 H        1 UNL1     0.0279
     77 H         -5.631827   -3.788167   -10.518752 H        1 UNL1     0.0279
     78 H         -7.117891   -2.0994   -7.904572 H        1 UNL1     0.1553
     79 H         -6.053242   -2.685273   -6.339484 H        1 UNL1     0.1484
     80 H         -5.392853   -1.56279   -2.769693 H        1 UNL1     0.0317
     81 H         -6.49867   -0.71689   -3.842795 H        1 UNL1     0.0317
     82 H         -7.353877   -2.886761   -4.766906 H        1 UNL1     0.0428
     83 H         -7.532578   -2.774063   -3.029935 H        1 UNL1     0.0428
     84 H         -4.228015   -5.040158   -4.460953 H        1 UNL1     0.0428
     85 H         -5.268791   -4.357563   -5.660941 H        1 UNL1     0.0428
     86 H         -3.149011   -3.134841   -5.174795 H        1 UNL1     0.0317
     87 H         -3.557025   -2.875042   -3.541278 H        1 UNL1     0.0317
     88 H         -6.10778   -5.959531   -2.888505 H        1 UNL1     0.0429
     89 H         -7.610794   -5.038092   -2.798318 H        1 UNL1     0.0429
     90 H         -8.04733   -5.360608   -5.148531 H        1 UNL1     0.0308
     91 H         -6.372883   -6.175511   -6.78387 H        1 UNL1     0.0233
     92 H         -5.716289   -4.751681   -5.93706 H        1 UNL1     0.0233
     93 H         -5.152497   -6.358124   -5.529528 H        1 UNL1     0.0233
     94 H         -6.723169   -7.983525   -4.544528 H        1 UNL1     0.0233
     95 H         -8.085594   -7.415966   -3.566774 H        1 UNL1     0.0233
     96 H         -8.28782   -7.656267   -5.317588 H        1 UNL1     0.0233
     97 H         -4.592448   6.057317   -8.647387 H        1 UNL1     0.0280
     98 H         -5.803489   6.230856   -7.406238 H        1 UNL1     0.0280
     99 H         -4.070057   6.300986   -6.970317 H        1 UNL1     0.0280
     100 H         -7.440308   4.107381   -8.455727 H        1 UNL1     0.2922
     101 H         1.823939   -1.344998   -4.831819 H        1 UNL1     0.0236
     102 H         1.200128   -1.034948   -6.499388 H        1 UNL1     0.0236
     103 H         1.294971   -2.644419   -5.854328 H        1 UNL1     0.0236
     104 H         0.39299   -3.222201   -3.876415 H        1 UNL1     0.2098
     105 H         -0.998269   -1.219738   -0.725595 H        1 UNL1     0.0234
     106 H         0.399175   -1.611573   0.3159 H        1 UNL1     0.0234
     107 H         0.0   0.0   0.0 H        1 UNL1     0.0234
     108 H         2.575664   1.735586   -2.856088 H        1 UNL1     0.2098
     109 H         -2.628845   2.110036   -0.589878 H        1 UNL1     0.0234
     110 H         -1.433438   1.047589   -1.399205 H        1 UNL1     0.0234
     111 H         -1.902981   0.747805   0.237409 H        1 UNL1     0.0234
     112 H         2.362201   -0.78685   0.813136 H        1 UNL1     0.0342
     113 H         1.334631   -2.077838   1.531252 H        1 UNL1     0.0342
     114 H         0.62933   -0.872466   0.450697 H        1 UNL1     0.0342
     115 H         4.038318   2.42781   -0.363083 H        1 UNL1     0.0234
     116 H         2.705491   3.56858   -0.570449 H        1 UNL1     0.0234
     117 H         3.290027   3.060085   1.027486 H        1 UNL1     0.0234
     118 H         -3.675342   5.286343   -3.558302 H        1 UNL1     0.0309
     119 H         -4.335131   3.622143   -3.501932 H        1 UNL1     0.0309
     120 H         -2.930442   4.086383   -2.567327 H        1 UNL1     0.0309
     121 H         2.693089   5.046983   -0.450637 H        1 UNL1     0.0524
     122 H         1.430358   6.027251   -1.206575 H        1 UNL1     0.0524
     123 H         1.141023   5.298712   0.393193 H        1 UNL1     0.0524
@<TRIPOS>BOND
     1     1     2    1
     2     1    42    1
     3     2     3    2
     4     3     4    1
     5     4     5    2
     6     5     7    1
     7     6    75    1
     8     6    76    1
     9     6    77    1
    10     7     9   am
    11     9    10    1
    12    10    11    2
    13    10    43    1
    14    11    14    1
    15    11    15    1
    16    12    13   ar
    17    12    27   ar
    18    12    43    1
    19    13    14    1
    20    13    30   ar
    21    14    17    2
    22    15    16    1
    23    16    17    1
    24    16    18    1
    25    16    22    1
    26    18    19    1
    27    19    20    1
    28    20    21    1
    29    21    22    1
    30    23    24    1
    31    23    88    1
    32    23    89    1
    33    24    25    1
    34    24    26    1
    35    24    90    1
    36    25    91    1
    37    25    92    1
    38    25    93    1
    39    26    94    1
    40    26    95    1
    41    26    96    1
    42    27    28   ar
    43    28    29   ar
    44    29    30   ar
    45    29    31    1
    46    30    33    1
    47    31    32    1
    48    32    33    1
    49    32    35    1
    50    34    97    1
    51    34    98    1
    52    34    99    1
    53    35    61    1
    54    36    37    1
    55    36    60    1
    56    37    38    1
    57    38    39    1
    58    39    40    1
    59    40    41    1
    60    41    42    1
    61    45   100    1
    62    47   101    1
    63    47   102    1
    64    47   103    1
    65    48   104    1
    66    49   105    1
    67    49   106    1
    68    49   107    1
    69    50   108    1
    70    51    59    1
    71    52   109    1
    72    52   110    1
    73    52   111    1
    74    53    54    1
    75    54    55    2
    76    54    56    1
    77    56   112    1
    78    56   113    1
    79    56   114    1
    80    57   115    1
    81    57   116    1
    82    57   117    1
    83    58   118    1
    84    58   119    1
    85    58   120    1
    86    59   121    1
    87    59   122    1
    88    59   123    1
    89    60    61    2
    90     1    47    1
    91     1    62    1
    92     2    63    1
    93     3    64    1
    94     4    65    1
    95     5     6    1
    96     7     8    2
    97     9    78    1
    98    15    79    1
    99    18    80    1
   100    18    81    1
   101    19    82    1
   102    19    83    1
   103    20    23    1
   104    21    84    1
   105    21    85    1
   106    22    86    1
   107    22    87    1
   108    27    45    1
   109    28    34    1
   110    32    58    1
   111    33    46    2
   112    36    51    1
   113    36    66    1
   114    37    52    1
   115    37    67    1
   116    38    53    1
   117    38    68    1
   118    42    48    1
   119    42    72    1
   120    43    44    2
   121    60    73    1
   122    61    74    1
   123    39    69    1
   124    39    57    1
   125    40    70    1
   126    40    50    1
   127    41    71    1
   128    41    49    1
