@<TRIPOS>MOLECULE
*****
 123 128 0 0 0
SMALL
GASTEIGER

@<TRIPOS>ATOM
     1 C         -0.26845   0.126042   4.117932 C.3        1 UNL1     0.0009
     2 C         -1.562975   -0.640769   5.201095 C.2        1 UNL1     -0.0787
     3 C         -2.807326   -0.541049   5.934371 C.2        1 UNL1     -0.0649
     4 C         -3.64202   -1.774104   6.740112 C.2        1 UNL1     -0.0542
     5 C         -4.894398   -2.176987   7.265768 C.2        1 UNL1     0.0115
     6 C         -6.330037   -1.690119   7.605211 C.3        1 UNL1     -0.0348
     7 C         -5.143889   -3.732802   7.572658 C.2        1 UNL1     0.2441
     8 O         -5.098798   -4.204119   8.700645 O.2        1 UNL1     -0.2702
     9 N         -5.673423   -4.467653   6.497605 N.am        1 UNL1     -0.2772
     10 C         -4.660592   -4.954435   5.703541 C.2        1 UNL1     0.1049
     11 C         -4.171763   -4.118161   4.805814 C.2        1 UNL1     0.0801
     12 C         -2.485923   -6.187168   5.795839 C.ar        1 UNL1     0.0753
     13 C         -1.946125   -5.137031   4.986864 C.ar        1 UNL1     0.0305
     14 C         -2.805847   -4.137326   4.357167 C.2        1 UNL1     0.0924
     15 N         -4.637724   -2.927998   4.389979 N.pl3        1 UNL1     -0.3170
     16 C         -3.831655   -2.505578   3.275499 C.3        1 UNL1     0.1275
     17 N         -2.493516   -3.164418   3.5058 N.2        1 UNL1     -0.2557
     18 C         -4.413998   -3.155702   2.024132 C.3        1 UNL1     0.0016
     19 C         -5.882161   -2.775461   1.916879 C.3        1 UNL1     0.0026
     20 N         -5.985852   -1.32432   1.850037 N.3        1 UNL1     -0.3018
     21 C         -5.397091   -0.606134   2.982264 C.3        1 UNL1     0.0026
     22 C         -3.921346   -0.999374   3.068485 C.3        1 UNL1     0.0016
     23 C         -7.302541   -0.870941   1.448263 C.3        1 UNL1     0.0012
     24 C         -7.555812   -1.196538   -0.032141 C.3        1 UNL1     -0.0339
     25 C         -8.644978   -2.269721   -0.193556 C.3        1 UNL1     -0.0615
     26 C         -7.903583   0.071604   -0.792175 C.3        1 UNL1     -0.0615
     27 C         -1.675069   -7.204841   6.292805 C.ar        1 UNL1     0.1347
     28 C         -0.322874   -7.300216   6.016177 C.ar        1 UNL1     0.0342
     29 C         0.196019   -6.228861   5.258475 C.ar        1 UNL1     0.1435
     30 C         -0.597315   -5.183439   4.784201 C.ar        1 UNL1     0.0774
     31 O         1.471711   -6.232879   4.813953 O.3        1 UNL1     -0.4436
     32 C         1.483706   -5.282973   3.73766 C.3        1 UNL1     0.3143
     33 C         0.309154   -4.364236   4.007035 C.2        1 UNL1     0.2504
     34 C         0.553773   -8.487801   6.301188 C.3        1 UNL1     -0.0327
     35 O         2.671483   -4.494018   3.879039 O.2        1 UNL1     -0.4528
     36 C         3.658437   -3.459729   0.362754 C.3        1 UNL1     0.0854
     37 C         2.822135   -2.667403   -0.714437 C.3        1 UNL1     0.0236
     38 C         3.532527   -1.347625   -1.284766 C.3        1 UNL1     0.1131
     39 C         4.117027   -0.274248   -0.28053 C.3        1 UNL1     0.0200
     40 C         3.246984   0.184053   1.066846 C.3        1 UNL1     0.0661
     41 C         1.620771   0.666534   1.082789 C.3        1 UNL1     0.0091
     42 C         0.329929   0.457162   2.369372 C.3        1 UNL1     0.0661
     43 C         -3.953688   -6.20595   6.013946 C.2        1 UNL1     0.2131
     44 O         -4.574906   -7.205418   6.326823 O.2        1 UNL1     -0.2851
     45 O         -2.270833   -8.16349   7.109809 O.3        1 UNL1     -0.5056
     46 O         0.164139   -3.209217   3.674237 O.2        1 UNL1     -0.2836
     47 C         0.623003   1.091848   4.944075 C.3        1 UNL1     -0.0566
     48 O         -0.125421   1.866939   2.303776 O.3        1 UNL1     -0.3909
     49 C         0.988914   0.296327   -0.240539 C.3        1 UNL1     -0.0577
     50 O         3.502812   -0.688207   2.149176 O.3        1 UNL1     -0.3910
     51 O         4.833965   -2.827819   0.816906 O.3        1 UNL1     -0.3753
     52 C         1.288204   -2.722891   -0.416237 C.3        1 UNL1     -0.0564
     53 O         2.895712   -0.81547   -2.535208 O.3        1 UNL1     -0.4608
     54 C         2.739742   0.510062   -2.845962 C.2        1 UNL1     0.3042
     55 O         1.710639   1.17974   -2.766479 O.2        1 UNL1     -0.2512
     56 C         4.01386   1.181608   -3.273003 C.3        1 UNL1     0.0332
     57 C         5.673799   -0.58848   -0.091073 C.3        1 UNL1     -0.0567
     58 C         1.204418   -6.083675   2.444445 C.3        1 UNL1     0.0210
     59 C         6.048206   -3.413623   0.349661 C.3        1 UNL1     0.0372
     60 C         2.896281   -3.869754   1.573605 C.2        1 UNL1     -0.0208
     61 C         3.221921   -3.799216   2.86501 C.2        1 UNL1     0.0882
     62 H         0.254111   -0.837809   4.092806 H        1 UNL1     0.0365
     63 H         -1.121748   -1.623268   5.38133 H        1 UNL1     0.0576
     64 H         -3.427198   0.357248   5.890477 H        1 UNL1     0.0615
     65 H         -2.913276   -2.587132   6.798423 H        1 UNL1     0.0622
     66 H         3.946004   -4.392516   -0.142478 H        1 UNL1     0.0645
     67 H         2.835951   -3.324719   -1.601175 H        1 UNL1     0.0362
     68 H         4.410238   -1.804774   -1.766596 H        1 UNL1     0.0741
     69 H         4.247412   0.661219   -0.808079 H        1 UNL1     0.0359
     70 H         3.781486   1.116613   1.330855 H        1 UNL1     0.0600
     71 H         1.742809   1.761292   0.966303 H        1 UNL1     0.0348
     72 H         1.29368   0.326806   2.882701 H        1 UNL1     0.0602
     73 H         2.01853   -4.387197   1.275186 H        1 UNL1     0.0628
     74 H         4.0716   -3.239198   3.257009 H        1 UNL1     0.1022
     75 H         -6.294557   -0.722385   8.161329 H        1 UNL1     0.0279
     76 H         -6.973731   -1.451942   6.761411 H        1 UNL1     0.0279
     77 H         -6.838498   -2.339697   8.332685 H        1 UNL1     0.0279
     78 H         -6.250832   -3.860443   5.919702 H        1 UNL1     0.1553
     79 H         -5.58461   -2.62341   4.522519 H        1 UNL1     0.1484
     80 H         -3.847447   -2.816662   1.148439 H        1 UNL1     0.0317
     81 H         -4.307782   -4.24511   2.063617 H        1 UNL1     0.0317
     82 H         -6.46885   -3.175946   2.756712 H        1 UNL1     0.0428
     83 H         -6.278078   -3.250951   1.018988 H        1 UNL1     0.0428
     84 H         -5.417104   0.482309   2.869562 H        1 UNL1     0.0428
     85 H         -5.950273   -0.788097   3.914034 H        1 UNL1     0.0428
     86 H         -3.494365   -0.359004   3.817885 H        1 UNL1     0.0317
     87 H         -3.399535   -0.699805   2.151388 H        1 UNL1     0.0317
     88 H         -8.046834   -1.402694   2.055355 H        1 UNL1     0.0429
     89 H         -7.432718   0.20087   1.645869 H        1 UNL1     0.0429
     90 H         -6.628109   -1.570192   -0.481543 H        1 UNL1     0.0308
     91 H         -9.51159   -2.055159   0.438939 H        1 UNL1     0.0233
     92 H         -8.968934   -2.337783   -1.234723 H        1 UNL1     0.0233
     93 H         -8.28976   -3.270033   0.082181 H        1 UNL1     0.0233
     94 H         -8.449013   -0.175352   -1.709429 H        1 UNL1     0.0233
     95 H         -8.546098   0.710118   -0.179447 H        1 UNL1     0.0233
     96 H         -7.005232   0.632544   -1.064717 H        1 UNL1     0.0233
     97 H         0.96597   -8.917287   5.392967 H        1 UNL1     0.0280
     98 H         1.416185   -8.224741   6.927527 H        1 UNL1     0.0280
     99 H         -0.034224   -9.265631   6.815323 H        1 UNL1     0.0280
     100 H         -2.798695   -7.811959   7.805086 H        1 UNL1     0.2922
     101 H         1.588727   0.62556   5.138002 H        1 UNL1     0.0236
     102 H         0.145122   1.438766   5.859641 H        1 UNL1     0.0236
     103 H         0.863628   2.012379   4.386476 H        1 UNL1     0.0236
     104 H         0.343308   2.293999   1.560215 H        1 UNL1     0.2098
     105 H         0.926914   1.114893   -0.953222 H        1 UNL1     0.0234
     106 H         1.413446   -0.587549   -0.716421 H        1 UNL1     0.0234
     107 H         0.0   -0.0   0.0 H        1 UNL1     0.0234
     108 H         4.461742   -0.651947   2.330576 H        1 UNL1     0.2098
     109 H         0.900077   -3.751009   -0.422865 H        1 UNL1     0.0234
     110 H         1.014784   -2.234079   0.525064 H        1 UNL1     0.0234
     111 H         0.708436   -2.181412   -1.175589 H        1 UNL1     0.0234
     112 H         3.824561   2.238205   -3.485403 H        1 UNL1     0.0342
     113 H         4.804844   1.06739   -2.533313 H        1 UNL1     0.0342
     114 H         4.356694   0.70733   -4.20289 H        1 UNL1     0.0342
     115 H         6.25768   0.326913   0.07723 H        1 UNL1     0.0234
     116 H         5.891698   -1.272787   0.731298 H        1 UNL1     0.0234
     117 H         6.156489   -0.984848   -1.000933 H        1 UNL1     0.0234
     118 H         2.093287   -6.140721   1.792016 H        1 UNL1     0.0309
     119 H         0.836047   -7.096272   2.637197 H        1 UNL1     0.0309
     120 H         0.453591   -5.604081   1.806986 H        1 UNL1     0.0309
     121 H         6.826944   -3.181562   1.075657 H        1 UNL1     0.0524
     122 H         5.981084   -4.511744   0.274412 H        1 UNL1     0.0524
     123 H         6.31056   -3.008894   -0.623714 H        1 UNL1     0.0524
@<TRIPOS>BOND
     1     1     2    1
     2     1    42    1
     3     2     3    2
     4     3     4    1
     5     4     5    2
     6     5     7    1
     7     6    75    1
     8     6    76    1
     9     6    77    1
    10     7     9   am
    11     9    10    1
    12    10    11    2
    13    10    43    1
    14    11    14    1
    15    11    15    1
    16    12    13   ar
    17    12    27   ar
    18    12    43    1
    19    13    14    1
    20    13    30   ar
    21    14    17    2
    22    15    16    1
    23    16    17    1
    24    16    18    1
    25    16    22    1
    26    18    19    1
    27    19    20    1
    28    20    21    1
    29    21    22    1
    30    23    24    1
    31    23    88    1
    32    23    89    1
    33    24    25    1
    34    24    26    1
    35    24    90    1
    36    25    91    1
    37    25    92    1
    38    25    93    1
    39    26    94    1
    40    26    95    1
    41    26    96    1
    42    27    28   ar
    43    28    29   ar
    44    29    30   ar
    45    29    31    1
    46    30    33    1
    47    31    32    1
    48    32    33    1
    49    32    35    1
    50    34    97    1
    51    34    98    1
    52    34    99    1
    53    35    61    1
    54    36    37    1
    55    36    60    1
    56    37    38    1
    57    38    39    1
    58    39    40    1
    59    40    41    1
    60    41    42    1
    61    45   100    1
    62    47   101    1
    63    47   102    1
    64    47   103    1
    65    48   104    1
    66    49   105    1
    67    49   106    1
    68    49   107    1
    69    50   108    1
    70    51    59    1
    71    52   109    1
    72    52   110    1
    73    52   111    1
    74    53    54    1
    75    54    55    2
    76    54    56    1
    77    56   112    1
    78    56   113    1
    79    56   114    1
    80    57   115    1
    81    57   116    1
    82    57   117    1
    83    58   118    1
    84    58   119    1
    85    58   120    1
    86    59   121    1
    87    59   122    1
    88    59   123    1
    89    60    61    2
    90     1    47    1
    91     1    62    1
    92     2    63    1
    93     3    64    1
    94     4    65    1
    95     5     6    1
    96     7     8    2
    97     9    78    1
    98    15    79    1
    99    18    80    1
   100    18    81    1
   101    19    82    1
   102    19    83    1
   103    20    23    1
   104    21    84    1
   105    21    85    1
   106    22    86    1
   107    22    87    1
   108    27    45    1
   109    28    34    1
   110    32    58    1
   111    33    46    2
   112    36    51    1
   113    36    66    1
   114    37    52    1
   115    37    67    1
   116    38    53    1
   117    38    68    1
   118    42    48    1
   119    42    72    1
   120    43    44    2
   121    60    73    1
   122    61    74    1
   123    39    69    1
   124    39    57    1
   125    40    70    1
   126    40    50    1
   127    41    71    1
   128    41    49    1
