@<TRIPOS>MOLECULE
*****
 123 128 0 0 0
SMALL
GASTEIGER

@<TRIPOS>ATOM
     1 C         4.90627   2.33802   0.672288 C.3        1 UNL1     0.0009
     2 C         6.196361   3.429564   -0.090098 C.2        1 UNL1     -0.0787
     3 C         7.473954   3.590777   -0.751773 C.2        1 UNL1     -0.0649
     4 C         8.145976   5.009706   -1.385321 C.2        1 UNL1     -0.0542
     5 C         9.102958   5.539902   -2.285408 C.2        1 UNL1     0.0115
     6 C         10.308717   5.176828   -3.195157 C.3        1 UNL1     -0.0348
     7 C         8.964909   7.069001   -2.754224 C.2        1 UNL1     0.2441
     8 O         9.654663   7.970005   -2.297108 O.2        1 UNL1     -0.2702
     9 N         8.184591   7.263363   -3.907255 N.am        1 UNL1     -0.2772
     10 C         6.859564   7.417816   -3.569955 C.2        1 UNL1     0.1049
     11 C         6.175351   6.30531   -3.373987 C.2        1 UNL1     0.0801
     12 C         5.337814   8.670612   -2.029789 C.ar        1 UNL1     0.0753
     13 C         4.764358   7.40336   -1.692403 C.ar        1 UNL1     0.0305
     14 C         5.077104   6.195271   -2.452509 C.2        1 UNL1     0.0924
     15 N         6.500287   5.031056   -3.651876 N.pl3        1 UNL1     -0.3170
     16 C         5.339856   4.217477   -3.403395 C.3        1 UNL1     0.1275
     17 N         4.569903   4.970388   -2.34603 N.2        1 UNL1     -0.2557
     18 C         4.480355   4.258961   -4.663252 C.3        1 UNL1     0.0016
     19 C         5.324685   3.804565   -5.843176 C.3        1 UNL1     0.0026
     20 N         5.806289   2.455234   -5.581655 N.3        1 UNL1     -0.3018
     21 C         6.59283   2.302487   -4.355936 C.3        1 UNL1     0.0026
     22 C         5.723885   2.760224   -3.183202 C.3        1 UNL1     0.0016
     23 C         6.36494   1.818062   -6.75748 C.3        1 UNL1     0.0012
     24 C         5.255726   1.483815   -7.767272 C.3        1 UNL1     -0.0339
     25 C         5.52792   2.129525   -9.135858 C.3        1 UNL1     -0.0615
     26 C         5.092439   -0.021818   -7.882107 C.3        1 UNL1     -0.0615
     27 C         4.943596   9.837398   -1.379158 C.ar        1 UNL1     0.1347
     28 C         3.960367   9.867791   -0.406334 C.ar        1 UNL1     0.0342
     29 C         3.444806   8.601789   -0.056191 C.ar        1 UNL1     0.1435
     30 C         3.856047   7.420074   -0.67397 C.ar        1 UNL1     0.0774
     31 O         2.404003   8.475763   0.79578 O.3        1 UNL1     -0.4436
     32 C         1.880026   7.16457   0.536758 C.3        1 UNL1     0.3143
     33 C         3.030948   6.391791   -0.075128 C.2        1 UNL1     0.2504
     34 C         3.311099   11.103091   0.152758 C.3        1 UNL1     -0.0327
     35 O         1.599063   6.559909   1.805102 O.2        1 UNL1     -0.4528
     36 C         -1.309939   4.195454   1.209164 C.3        1 UNL1     0.0854
     37 C         -1.422883   2.989597   0.198879 C.3        1 UNL1     0.0236
     38 C         -1.817128   1.584873   0.86451 C.3        1 UNL1     0.1131
     39 C         -1.010258   1.056139   2.118173 C.3        1 UNL1     0.0200
     40 C         0.653744   1.165006   2.159174 C.3        1 UNL1     0.0661
     41 C         1.712918   0.662363   0.93316 C.3        1 UNL1     0.0091
     42 C         3.340761   1.333215   0.417906 C.3        1 UNL1     0.0661
     43 C         6.301612   8.71428   -3.157373 C.2        1 UNL1     0.2131
     44 O         6.553933   9.724681   -3.788373 O.2        1 UNL1     -0.2851
     45 O         5.583854   11.022525   -1.735504 O.3        1 UNL1     -0.5056
     46 O         3.232978   5.198232   -0.05382 O.2        1 UNL1     -0.2836
     47 C         5.372894   1.845977   2.068761 C.3        1 UNL1     -0.0566
     48 O         4.001872   0.006485   0.375053 O.3        1 UNL1     -0.3909
     49 C         0.916927   0.41759   -0.329369 C.3        1 UNL1     -0.0577
     50 O         1.061541   2.420033   2.665466 O.3        1 UNL1     -0.3910
     51 O         -1.394774   3.863457   2.576647 O.3        1 UNL1     -0.3753
     52 C         -0.373274   3.097132   -0.955117 C.3        1 UNL1     -0.0564
     53 O         -2.257976   0.551485   -0.130522 O.3        1 UNL1     -0.4608
     54 C         -2.25415   -0.803304   0.075543 C.2        1 UNL1     0.3042
     55 O         -1.44075   -1.621494   -0.351988 O.2        1 UNL1     -0.2512
     56 C         -3.358308   -1.277627   0.976968 C.3        1 UNL1     0.0332
     57 C         -1.817987   1.488877   3.429084 C.3        1 UNL1     -0.0567
     58 C         0.773268   7.338531   -0.529242 C.3        1 UNL1     0.0210
     59 C         -1.881328   4.908089   3.418 C.3        1 UNL1     0.0372
     60 C         -0.095176   5.039983   1.047049 C.2        1 UNL1     -0.0208
     61 C         0.745128   5.529894   1.959531 C.2        1 UNL1     0.0882
     62 H         4.284948   3.22514   0.844588 H        1 UNL1     0.0365
     63 H         5.771588   4.41584   0.108136 H        1 UNL1     0.0576
     64 H         8.073738   2.730027   -1.055873 H        1 UNL1     0.0615
     65 H         7.525816   5.803887   -0.960866 H        1 UNL1     0.0622
     66 H         -2.162607   4.843446   0.961956 H        1 UNL1     0.0645
     67 H         -2.3295   3.216168   -0.388718 H        1 UNL1     0.0362
     68 H         -2.81802   1.836961   1.246859 H        1 UNL1     0.0741
     69 H         -1.180838   -0.007459   2.218527 H        1 UNL1     0.0359
     70 H         0.871335   0.452558   2.977791 H        1 UNL1     0.0600
     71 H         1.915932   -0.374389   1.266158 H        1 UNL1     0.0348
     72 H         3.166951   1.708359   1.436911 H        1 UNL1     0.0602
     73 H         -0.015451   5.346267   0.033599 H        1 UNL1     0.0628
     74 H         0.766825   5.222844   3.005708 H        1 UNL1     0.1022
     75 H         10.474103   4.072476   -3.204627 H        1 UNL1     0.0279
     76 H         10.204929   5.407236   -4.253084 H        1 UNL1     0.0279
     77 H         11.267624   5.536213   -2.793857 H        1 UNL1     0.0279
     78 H         8.254136   6.445496   -4.509196 H        1 UNL1     0.1553
     79 H         7.219745   4.768419   -4.300209 H        1 UNL1     0.1484
     80 H         3.607399   3.610294   -4.522023 H        1 UNL1     0.0317
     81 H         4.095061   5.268716   -4.841 H        1 UNL1     0.0317
     82 H         6.160837   4.493122   -6.034619 H        1 UNL1     0.0428
     83 H         4.69303   3.84347   -6.731179 H        1 UNL1     0.0428
     84 H         6.874296   1.266803   -4.141583 H        1 UNL1     0.0428
     85 H         7.553264   2.832633   -4.417812 H        1 UNL1     0.0428
     86 H         6.278288   2.511018   -2.29747 H        1 UNL1     0.0317
     87 H         4.83051   2.128108   -3.10967 H        1 UNL1     0.0317
     88 H         7.064768   2.521561   -7.227187 H        1 UNL1     0.0429
     89 H         6.940231   0.92229   -6.490262 H        1 UNL1     0.0429
     90 H         4.298721   1.860776   -7.387463 H        1 UNL1     0.0308
     91 H         6.566213   1.97992   -9.446771 H        1 UNL1     0.0233
     92 H         4.86242   1.716056   -9.897279 H        1 UNL1     0.0233
     93 H         5.350476   3.211796   -9.129708 H        1 UNL1     0.0233
     94 H         4.615132   -0.278456   -8.834026 H        1 UNL1     0.0233
     95 H         6.072101   -0.507068   -7.854584 H        1 UNL1     0.0233
     96 H         4.47845   -0.419759   -7.069315 H        1 UNL1     0.0233
     97 H         2.484822   10.864589   0.815792 H        1 UNL1     0.0280
     98 H         4.010227   11.704684   0.748209 H        1 UNL1     0.0280
     99 H         2.923969   11.72242   -0.672867 H        1 UNL1     0.0280
     100 H         5.004133   11.740264   -1.920967 H        1 UNL1     0.2922
     101 H         4.5517   1.33633   2.572306 H        1 UNL1     0.0236
     102 H         5.799622   2.638907   2.682071 H        1 UNL1     0.0236
     103 H         6.170098   1.087496   1.995508 H        1 UNL1     0.0236
     104 H         4.358339   -0.174371   1.266789 H        1 UNL1     0.2098
     105 H         0.688408   1.315851   -0.897452 H        1 UNL1     0.0234
     106 H         1.327896   -0.349818   -0.985202 H        1 UNL1     0.0234
     107 H         0.0   -0.0   0.0 H        1 UNL1     0.0234
     108 H         0.815512   3.093982   2.002872 H        1 UNL1     0.2098
     109 H         0.658646   3.121253   -0.577928 H        1 UNL1     0.0234
     110 H         -0.471882   2.302093   -1.702065 H        1 UNL1     0.0234
     111 H         -0.500286   4.02238   -1.53281 H        1 UNL1     0.0234
     112 H         -3.285706   -2.360524   1.116289 H        1 UNL1     0.0342
     113 H         -3.356169   -0.759462   1.934748 H        1 UNL1     0.0342
     114 H         -4.317686   -1.064871   0.485548 H        1 UNL1     0.0342
     115 H         -2.870359   1.176652   3.38201 H        1 UNL1     0.0234
     116 H         -1.400087   1.095766   4.357993 H        1 UNL1     0.0234
     117 H         -1.924684   2.581767   3.539307 H        1 UNL1     0.0234
     118 H         -0.237902   7.240763   -0.096825 H        1 UNL1     0.0309
     119 H         0.841806   8.288566   -1.068629 H        1 UNL1     0.0309
     120 H         0.79827   6.553666   -1.293092 H        1 UNL1     0.0309
     121 H         -1.485645   4.736722   4.418713 H        1 UNL1     0.0524
     122 H         -1.537106   5.90334   3.090853 H        1 UNL1     0.0524
     123 H         -2.967434   4.899597   3.437846 H        1 UNL1     0.0524
@<TRIPOS>BOND
     1     1     2    1
     2     1    42    1
     3     2     3    2
     4     3     4    1
     5     4     5    2
     6     5     7    1
     7     6    75    1
     8     6    76    1
     9     6    77    1
    10     7     9   am
    11     9    10    1
    12    10    11    2
    13    10    43    1
    14    11    14    1
    15    11    15    1
    16    12    13   ar
    17    12    27   ar
    18    12    43    1
    19    13    14    1
    20    13    30   ar
    21    14    17    2
    22    15    16    1
    23    16    17    1
    24    16    18    1
    25    16    22    1
    26    18    19    1
    27    19    20    1
    28    20    21    1
    29    21    22    1
    30    23    24    1
    31    23    88    1
    32    23    89    1
    33    24    25    1
    34    24    26    1
    35    24    90    1
    36    25    91    1
    37    25    92    1
    38    25    93    1
    39    26    94    1
    40    26    95    1
    41    26    96    1
    42    27    28   ar
    43    28    29   ar
    44    29    30   ar
    45    29    31    1
    46    30    33    1
    47    31    32    1
    48    32    33    1
    49    32    35    1
    50    34    97    1
    51    34    98    1
    52    34    99    1
    53    35    61    1
    54    36    37    1
    55    36    60    1
    56    37    38    1
    57    38    39    1
    58    39    40    1
    59    40    41    1
    60    41    42    1
    61    45   100    1
    62    47   101    1
    63    47   102    1
    64    47   103    1
    65    48   104    1
    66    49   105    1
    67    49   106    1
    68    49   107    1
    69    50   108    1
    70    51    59    1
    71    52   109    1
    72    52   110    1
    73    52   111    1
    74    53    54    1
    75    54    55    2
    76    54    56    1
    77    56   112    1
    78    56   113    1
    79    56   114    1
    80    57   115    1
    81    57   116    1
    82    57   117    1
    83    58   118    1
    84    58   119    1
    85    58   120    1
    86    59   121    1
    87    59   122    1
    88    59   123    1
    89    60    61    2
    90     1    47    1
    91     1    62    1
    92     2    63    1
    93     3    64    1
    94     4    65    1
    95     5     6    1
    96     7     8    2
    97     9    78    1
    98    15    79    1
    99    18    80    1
   100    18    81    1
   101    19    82    1
   102    19    83    1
   103    20    23    1
   104    21    84    1
   105    21    85    1
   106    22    86    1
   107    22    87    1
   108    27    45    1
   109    28    34    1
   110    32    58    1
   111    33    46    2
   112    36    51    1
   113    36    66    1
   114    37    52    1
   115    37    67    1
   116    38    53    1
   117    38    68    1
   118    42    48    1
   119    42    72    1
   120    43    44    2
   121    60    73    1
   122    61    74    1
   123    39    69    1
   124    39    57    1
   125    40    70    1
   126    40    50    1
   127    41    71    1
   128    41    49    1
