@<TRIPOS>MOLECULE
*****
 123 128 0 0 0
SMALL
GASTEIGER

@<TRIPOS>ATOM
     1 C         -3.64488   0.995701   3.938959 C.3        1 UNL1     0.0009
     2 C         -4.410758   2.313631   4.994198 C.2        1 UNL1     -0.0787
     3 C         -4.559922   2.965837   6.278108 C.2        1 UNL1     -0.0649
     4 C         -5.431768   4.372381   6.635702 C.2        1 UNL1     -0.0542
     5 C         -5.596181   5.432841   7.560619 C.2        1 UNL1     0.0115
     6 C         -5.192366   5.94421   8.970852 C.3        1 UNL1     -0.0348
     7 C         -6.373671   6.757402   7.093674 C.2        1 UNL1     0.2441
     8 O         -7.533567   6.992256   7.40353 O.2        1 UNL1     -0.2702
     9 N         -5.556694   7.750696   6.526164 N.am        1 UNL1     -0.2772
     10 C         -5.424586   7.547756   5.171659 C.2        1 UNL1     0.1049
     11 C         -4.506825   6.673412   4.800905 C.2        1 UNL1     0.0801
     12 C         -6.745214   7.10018   3.094894 C.ar        1 UNL1     0.0753
     13 C         -5.838012   6.021814   2.844455 C.ar        1 UNL1     0.0305
     14 C         -4.611646   5.857452   3.621669 C.2        1 UNL1     0.0924
     15 N         -3.527096   6.093928   5.515647 N.pl3        1 UNL1     -0.3170
     16 C         -2.696599   5.353564   4.603292 C.3        1 UNL1     0.1275
     17 N         -3.618396   4.986735   3.465993 N.2        1 UNL1     -0.2557
     18 C         -1.677961   6.330805   4.024431 C.3        1 UNL1     0.0016
     19 C         -0.92344   6.983257   5.17186 C.3        1 UNL1     0.0026
     20 N         -0.267082   5.942956   5.951602 N.3        1 UNL1     -0.3018
     21 C         -1.160044   4.919783   6.499419 C.3        1 UNL1     0.0026
     22 C         -1.904348   4.274288   5.329273 C.3        1 UNL1     0.0016
     23 C         0.713591   6.46843   6.880473 C.3        1 UNL1     0.0012
     24 C         0.045225   6.850007   8.210677 C.3        1 UNL1     -0.0339
     25 C         0.389108   5.844272   9.321667 C.3        1 UNL1     -0.0615
     26 C         0.43109   8.266481   8.599895 C.3        1 UNL1     -0.0615
     27 C         -7.848283   7.320909   2.273532 C.ar        1 UNL1     0.1347
     28 C         -8.124437   6.557197   1.153473 C.ar        1 UNL1     0.0342
     29 C         -7.245353   5.471439   0.954714 C.ar        1 UNL1     0.1435
     30 C         -6.157009   5.216328   1.789965 C.ar        1 UNL1     0.0774
     31 O         -7.316128   4.700946   -0.152688 O.3        1 UNL1     -0.4436
     32 C         -6.034657   4.058508   -0.230007 C.3        1 UNL1     0.3143
     33 C         -5.495278   4.078779   1.185928 C.2        1 UNL1     0.2504
     34 C         -9.135915   6.884605   0.090544 C.3        1 UNL1     -0.0327
     35 O         -6.266187   2.685562   -0.568629 O.2        1 UNL1     -0.4528
     36 C         -3.21515   1.569049   -2.531447 C.3        1 UNL1     0.0854
     37 C         -1.696133   1.587439   -2.107451 C.3        1 UNL1     0.0236
     38 C         -0.947593   0.173182   -2.213794 C.3        1 UNL1     0.1131
     39 C         -1.592193   -1.108403   -1.547235 C.3        1 UNL1     0.0200
     40 C         -2.256998   -1.022424   -0.019793 C.3        1 UNL1     0.0661
     41 C         -1.512288   -0.35838   1.35209 C.3        1 UNL1     0.0091
     42 C         -2.236538   0.512399   2.795215 C.3        1 UNL1     0.0661
     43 C         -6.422893   8.03001   4.205652 C.2        1 UNL1     0.2131
     44 O         -6.859096   9.164316   4.281907 O.2        1 UNL1     -0.2851
     45 O         -8.70718   8.364093   2.613388 O.3        1 UNL1     -0.5056
     46 O         -4.712656   3.31474   1.705159 O.2        1 UNL1     -0.2836
     47 C         -4.287251   -0.383423   4.247762 C.3        1 UNL1     -0.0566
     48 O         -1.473789   -0.272459   3.795878 O.3        1 UNL1     -0.3909
     49 C         -0.306343   0.442092   0.913416 C.3        1 UNL1     -0.0577
     50 O         -3.607547   -0.610497   -0.083497 O.3        1 UNL1     -0.3910
     51 O         -3.769833   0.297178   -2.78065 O.3        1 UNL1     -0.3753
     52 C         -1.433066   2.580585   -0.92872 C.3        1 UNL1     -0.0564
     53 O         0.548064   0.278969   -2.149402 O.3        1 UNL1     -0.4608
     54 C         1.397324   0.205053   -3.222353 C.2        1 UNL1     0.3042
     55 O         2.166856   1.07558   -3.627126 O.2        1 UNL1     -0.2512
     56 C         1.3841   -1.13107   -3.908877 C.3        1 UNL1     0.0332
     57 C         -2.422272   -1.874962   -2.679282 C.3        1 UNL1     -0.0567
     58 C         -5.145207   4.961857   -1.115654 C.3        1 UNL1     0.0210
     59 C         -3.798777   -0.575657   -1.652294 C.3        1 UNL1     0.0372
     60 C         -4.13838   2.263617   -1.593161 C.2        1 UNL1     -0.0208
     61 C         -5.325841   1.890486   -1.114147 C.2        1 UNL1     0.0882
     62 H         -4.180924   1.403891   3.073657 H        1 UNL1     0.0365
     63 H         -5.10047   2.770109   4.28118 H        1 UNL1     0.0576
     64 H         -3.956321   2.675803   7.141041 H        1 UNL1     0.0615
     65 H         -6.052809   4.526517   5.749117 H        1 UNL1     0.0622
     66 H         -3.247494   2.144577   -3.467271 H        1 UNL1     0.0645
     67 H         -1.200368   2.15914   -2.911151 H        1 UNL1     0.0362
     68 H         -1.022604   0.006516   -3.299205 H        1 UNL1     0.0741
     69 H         -0.82551   -1.862637   -1.430032 H        1 UNL1     0.0359
     70 H         -2.307889   -2.100191   0.226963 H        1 UNL1     0.0600
     71 H         -1.031162   -1.264956   1.768736 H        1 UNL1     0.0348
     72 H         -3.063003   -0.045617   2.331655 H        1 UNL1     0.0602
     73 H         -3.776572   3.244733   -1.409436 H        1 UNL1     0.0628
     74 H         -5.741018   0.886512   -1.208501 H        1 UNL1     0.1022
     75 H         -5.913681   6.717977   9.328658 H        1 UNL1     0.0279
     76 H         -5.213865   5.213607   9.776349 H        1 UNL1     0.0279
     77 H         -4.250717   6.512492   8.963613 H        1 UNL1     0.0279
     78 H         -4.625882   7.702934   6.935291 H        1 UNL1     0.1553
     79 H         -3.189332   6.451778   6.390171 H        1 UNL1     0.1484
     80 H         -0.999177   5.786138   3.35708 H        1 UNL1     0.0317
     81 H         -2.171557   7.094651   3.414059 H        1 UNL1     0.0317
     82 H         -1.588432   7.590936   5.803069 H        1 UNL1     0.0428
     83 H         -0.203735   7.677399   4.736841 H        1 UNL1     0.0428
     84 H         -0.634705   4.108142   7.012321 H        1 UNL1     0.0428
     85 H         -1.830369   5.330709   7.266961 H        1 UNL1     0.0428
     86 H         -2.44446   3.446869   5.750752 H        1 UNL1     0.0317
     87 H         -1.189883   3.791933   4.651062 H        1 UNL1     0.0317
     88 H         1.455324   5.6827   7.07478 H        1 UNL1     0.0429
     89 H         1.253858   7.321309   6.449795 H        1 UNL1     0.0429
     90 H         -1.042784   6.8624   8.075418 H        1 UNL1     0.0308
     91 H         -0.505447   5.326017   9.679835 H        1 UNL1     0.0233
     92 H         1.112119   5.10694   8.965006 H        1 UNL1     0.0233
     93 H         0.848254   6.325874   10.193492 H        1 UNL1     0.0233
     94 H         1.022398   8.729491   7.802516 H        1 UNL1     0.0233
     95 H         -0.467905   8.871421   8.747599 H        1 UNL1     0.0233
     96 H         1.021263   8.280629   9.520473 H        1 UNL1     0.0233
     97 H         -9.866338   6.090934   -0.035144 H        1 UNL1     0.0280
     98 H         -9.711838   7.787674   0.331451 H        1 UNL1     0.0280
     99 H         -8.622525   7.0375   -0.872861 H        1 UNL1     0.0280
     100 H         -8.469044   9.20037   2.25345 H        1 UNL1     0.2922
     101 H         -5.369131   -0.276403   4.323507 H        1 UNL1     0.0236
     102 H         -3.861659   -0.867484   5.126135 H        1 UNL1     0.0236
     103 H         -4.134103   -1.104571   3.427588 H        1 UNL1     0.0236
     104 H         -1.727005   -1.21039   3.690345 H        1 UNL1     0.2098
     105 H         -0.509899   1.49281   0.722711 H        1 UNL1     0.0234
     106 H         0.568006   0.337185   1.555628 H        1 UNL1     0.0234
     107 H         0.0   0.0   0.0 H        1 UNL1     0.0234
     108 H         -4.143377   -1.305658   0.344763 H        1 UNL1     0.2098
     109 H         -1.177289   3.588778   -1.283455 H        1 UNL1     0.0234
     110 H         -2.268271   2.641489   -0.222699 H        1 UNL1     0.0234
     111 H         -0.58457   2.258953   -0.310211 H        1 UNL1     0.0234
     112 H         1.36648   -0.991735   -4.994059 H        1 UNL1     0.0342
     113 H         2.225186   -1.754154   -3.60857 H        1 UNL1     0.0342
     114 H         0.462227   -1.655289   -3.621632 H        1 UNL1     0.0342
     115 H         -3.059449   -1.188613   -3.253842 H        1 UNL1     0.0234
     116 H         -1.801214   -2.420877   -3.392242 H        1 UNL1     0.0234
     117 H         -3.173421   -2.575531   -2.27565 H        1 UNL1     0.0234
     118 H         -4.156198   4.510006   -1.307222 H        1 UNL1     0.0309
     119 H         -5.61217   5.220099   -2.071405 H        1 UNL1     0.0309
     120 H         -4.898748   5.913257   -0.631711 H        1 UNL1     0.0309
     121 H         -4.804411   -0.540719   -1.23416 H        1 UNL1     0.0524
     122 H         -3.590053   -1.622798   -1.927914 H        1 UNL1     0.0524
     123 H         -3.07299   -0.254976   -0.910344 H        1 UNL1     0.0524
@<TRIPOS>BOND
     1     1     2    1
     2     1    42    1
     3     2     3    2
     4     3     4    1
     5     4     5    2
     6     5     7    1
     7     6    75    1
     8     6    76    1
     9     6    77    1
    10     7     9   am
    11     9    10    1
    12    10    11    2
    13    10    43    1
    14    11    14    1
    15    11    15    1
    16    12    13   ar
    17    12    27   ar
    18    12    43    1
    19    13    14    1
    20    13    30   ar
    21    14    17    2
    22    15    16    1
    23    16    17    1
    24    16    18    1
    25    16    22    1
    26    18    19    1
    27    19    20    1
    28    20    21    1
    29    21    22    1
    30    23    24    1
    31    23    88    1
    32    23    89    1
    33    24    25    1
    34    24    26    1
    35    24    90    1
    36    25    91    1
    37    25    92    1
    38    25    93    1
    39    26    94    1
    40    26    95    1
    41    26    96    1
    42    27    28   ar
    43    28    29   ar
    44    29    30   ar
    45    29    31    1
    46    30    33    1
    47    31    32    1
    48    32    33    1
    49    32    35    1
    50    34    97    1
    51    34    98    1
    52    34    99    1
    53    35    61    1
    54    36    37    1
    55    36    60    1
    56    37    38    1
    57    38    39    1
    58    39    40    1
    59    40    41    1
    60    41    42    1
    61    45   100    1
    62    47   101    1
    63    47   102    1
    64    47   103    1
    65    48   104    1
    66    49   105    1
    67    49   106    1
    68    49   107    1
    69    50   108    1
    70    51    59    1
    71    52   109    1
    72    52   110    1
    73    52   111    1
    74    53    54    1
    75    54    55    2
    76    54    56    1
    77    56   112    1
    78    56   113    1
    79    56   114    1
    80    57   115    1
    81    57   116    1
    82    57   117    1
    83    58   118    1
    84    58   119    1
    85    58   120    1
    86    59   121    1
    87    59   122    1
    88    59   123    1
    89    60    61    2
    90     1    47    1
    91     1    62    1
    92     2    63    1
    93     3    64    1
    94     4    65    1
    95     5     6    1
    96     7     8    2
    97     9    78    1
    98    15    79    1
    99    18    80    1
   100    18    81    1
   101    19    82    1
   102    19    83    1
   103    20    23    1
   104    21    84    1
   105    21    85    1
   106    22    86    1
   107    22    87    1
   108    27    45    1
   109    28    34    1
   110    32    58    1
   111    33    46    2
   112    36    51    1
   113    36    66    1
   114    37    52    1
   115    37    67    1
   116    38    53    1
   117    38    68    1
   118    42    48    1
   119    42    72    1
   120    43    44    2
   121    60    73    1
   122    61    74    1
   123    39    69    1
   124    39    57    1
   125    40    70    1
   126    40    50    1
   127    41    71    1
   128    41    49    1
