@<TRIPOS>MOLECULE
*****
 123 128 0 0 0
SMALL
GASTEIGER

@<TRIPOS>ATOM
     1 C         5.166493   1.759959   0.457341 C.3        1 UNL1     0.0009
     2 C         6.595941   2.568829   -0.40257 C.2        1 UNL1     -0.0787
     3 C         7.873702   2.473139   -1.076526 C.2        1 UNL1     -0.0649
     4 C         8.74362   3.709866   -1.838174 C.2        1 UNL1     -0.0542
     5 C         9.75694   4.004355   -2.783445 C.2        1 UNL1     0.0115
     6 C         10.880857   3.381012   -3.656129 C.3        1 UNL1     -0.0348
     7 C         9.845201   5.487599   -3.39105 C.2        1 UNL1     0.2441
     8 O         10.669752   6.311131   -3.018979 O.2        1 UNL1     -0.2702
     9 N         9.086998   5.692561   -4.556928 N.am        1 UNL1     -0.2772
     10 C         7.805514   6.076619   -4.235029 C.2        1 UNL1     0.1049
     11 C         6.963703   5.10351   -3.937315 C.2        1 UNL1     0.0801
     12 C         6.512835   7.680995   -2.816476 C.ar        1 UNL1     0.0753
     13 C         5.759087   6.551623   -2.363718 C.ar        1 UNL1     0.0305
     14 C         5.874632   5.245948   -3.009408 C.2        1 UNL1     0.0924
     15 N         7.088125   3.77474   -4.096747 N.pl3        1 UNL1     -0.3170
     16 C         5.8216   3.172978   -3.774178 C.3        1 UNL1     0.1275
     17 N         5.189504   4.127198   -2.79049 N.2        1 UNL1     -0.2557
     18 C         4.960488   3.229792   -5.032336 C.3        1 UNL1     0.0016
     19 C         5.709524   2.546914   -6.165567 C.3        1 UNL1     0.0026
     20 N         5.985087   1.169525   -5.780998 N.3        1 UNL1     -0.3018
     21 C         6.756769   1.01119   -4.546572 C.3        1 UNL1     0.0026
     22 C         5.983806   1.700442   -3.420804 C.3        1 UNL1     0.0016
     23 C         6.424167   0.350548   -6.893261 C.3        1 UNL1     0.0012
     24 C         5.26294   0.09827   -7.867769 C.3        1 UNL1     -0.0339
     25 C         5.348181   1.020642   -9.094969 C.3        1 UNL1     -0.0615
     26 C         5.229525   -1.365876   -8.270187 C.3        1 UNL1     -0.0615
     27 C         6.308961   8.948439   -2.275977 C.ar        1 UNL1     0.1347
     28 C         5.355549   9.216282   -1.309895 C.ar        1 UNL1     0.0342
     29 C         4.659393   8.080502   -0.844559 C.ar        1 UNL1     0.1435
     30 C         4.878299   6.798768   -1.350975 C.ar        1 UNL1     0.0774
     31 O         3.623695   8.192153   0.015597 O.3        1 UNL1     -0.4436
     32 C         2.903743   6.95775   -0.121482 C.3        1 UNL1     0.3143
     33 C         3.915696   5.966616   -0.659829 C.2        1 UNL1     0.2504
     34 C         4.908656   10.581587   -0.866805 C.3        1 UNL1     -0.0327
     35 O         2.552547   6.520749   1.197209 O.2        1 UNL1     -0.4528
     36 C         -0.68887   4.581524   0.822096 C.3        1 UNL1     0.0854
     37 C         -0.997281   3.319974   -0.072833 C.3        1 UNL1     0.0236
     38 C         -1.590044   2.057935   0.7194 C.3        1 UNL1     0.1131
     39 C         -0.854762   1.52901   2.016269 C.3        1 UNL1     0.0200
     40 C         0.806968   1.387016   2.046749 C.3        1 UNL1     0.0661
     41 C         1.760399   0.619812   0.872025 C.3        1 UNL1     0.0091
     42 C         3.463529   0.9858   0.29687 C.3        1 UNL1     0.0661
     43 C         7.456052   7.474914   -3.943477 C.2        1 UNL1     0.2131
     44 O         7.849369   8.373583   -4.664887 O.2        1 UNL1     -0.2851
     45 O         7.116041   9.985108   -2.740065 O.3        1 UNL1     -0.5056
     46 O         3.935093   4.763165   -0.528741 O.2        1 UNL1     -0.2836
     47 C         5.573059   1.331845   1.8931 C.3        1 UNL1     -0.0566
     48 O         3.915617   -0.424318   0.376244 O.3        1 UNL1     -0.3909
     49 C         0.91871   0.384999   -0.362446 C.3        1 UNL1     -0.0577
     50 O         1.407099   2.606294   2.435241 O.3        1 UNL1     -0.3910
     51 O         -0.803555   4.39209   2.214358 O.3        1 UNL1     -0.3753
     52 C         0.04004   3.161307   -1.232031 C.3        1 UNL1     -0.0564
     53 O         -2.196239   1.017345   -0.176159 O.3        1 UNL1     -0.4608
     54 C         -2.394517   -0.297855   0.153786 C.2        1 UNL1     0.3042
     55 O         -1.812436   -1.279273   -0.306472 O.2        1 UNL1     -0.2512
     56 C         -3.408414   -0.498116   1.244025 C.3        1 UNL1     0.0332
     57 C         -1.569041   2.196929   3.281917 C.3        1 UNL1     -0.0567
     58 C         1.821039   7.200158   -1.198757 C.3        1 UNL1     0.0210
     59 C         -1.114469   5.570697   2.956035 C.3        1 UNL1     0.0372
     60 C         0.637265   5.213347   0.582667 C.2        1 UNL1     -0.0208
     61 C         1.554876   5.650838   1.445995 C.2        1 UNL1     0.0882
     62 H         4.689055   2.74315   0.547339 H        1 UNL1     0.0365
     63 H         6.328139   3.622098   -0.295917 H        1 UNL1     0.0576
     64 H         8.331973   1.507184   -1.300188 H        1 UNL1     0.0615
     65 H         8.256845   4.624352   -1.488536 H        1 UNL1     0.0622
     66 H         -1.437098   5.326353   0.516434 H        1 UNL1     0.0645
     67 H         -1.867422   3.627274   -0.678622 H        1 UNL1     0.0362
     68 H         -2.535746   2.492927   1.077104 H        1 UNL1     0.0741
     69 H         -1.182862   0.517282   2.214171 H        1 UNL1     0.0359
     70 H         0.925848   0.727249   2.927451 H        1 UNL1     0.0600
     71 H         1.808916   -0.401101   1.299038 H        1 UNL1     0.0348
     72 H         3.362952   1.474141   1.277034 H        1 UNL1     0.0602
     73 H         0.74803   5.410463   -0.454697 H        1 UNL1     0.0628
     74 H         1.544703   5.440533   2.515998 H        1 UNL1     0.1022
     75 H         10.909933   2.272448   -3.524693 H        1 UNL1     0.0279
     76 H         10.773464   3.486455   -4.733355 H        1 UNL1     0.0279
     77 H         11.888324   3.665789   -3.319063 H        1 UNL1     0.0279
     78 H         9.023452   4.822287   -5.081012 H        1 UNL1     0.1553
     79 H         7.750294   3.347934   -4.718279 H        1 UNL1     0.1484
     80 H         4.00153   2.73689   -4.831806 H        1 UNL1     0.0317
     81 H         4.729926   4.265961   -5.302238 H        1 UNL1     0.0317
     82 H         6.637431   3.080099   -6.419764 H        1 UNL1     0.0428
     83 H         5.078496   2.600397   -7.053257 H        1 UNL1     0.0428
     84 H         6.881305   -0.031389   -4.237814 H        1 UNL1     0.0428
     85 H         7.785383   1.38137   -4.65719 H        1 UNL1     0.0428
     86 H         6.506628   1.451515   -2.515994 H        1 UNL1     0.0317
     87 H         5.006209   1.220773   -3.289203 H        1 UNL1     0.0317
     88 H         7.215646   0.893837   -7.425889 H        1 UNL1     0.0429
     89 H         6.861035   -0.594172   -6.544802 H        1 UNL1     0.0429
     90 H         4.313947   0.289087   -7.352779 H        1 UNL1     0.0308
     91 H         6.3004   0.897614   -9.619607 H        1 UNL1     0.0233
     92 H         4.52815   0.818345   -9.787959 H        1 UNL1     0.0233
     93 H         5.26739   2.081023   -8.82683 H        1 UNL1     0.0233
     94 H         4.547615   -1.509854   -9.115234 H        1 UNL1     0.0233
     95 H         6.226163   -1.690465   -8.582144 H        1 UNL1     0.0233
     96 H         4.894516   -1.999248   -7.444005 H        1 UNL1     0.0233
     97 H         4.113894   10.530519   -0.12858 H        1 UNL1     0.0280
     98 H         5.72085   11.150047   -0.395159 H        1 UNL1     0.0280
     99 H         4.536944   11.148393   -1.73609 H        1 UNL1     0.0280
     100 H         6.645563   10.739282   -3.049089 H        1 UNL1     0.2922
     101 H         4.71132   0.907975   2.408266 H        1 UNL1     0.0236
     102 H         6.03694   2.135007   2.464702 H        1 UNL1     0.0236
     103 H         6.321832   0.522216   1.887434 H        1 UNL1     0.0236
     104 H         4.335703   -0.55067   1.249475 H        1 UNL1     0.2098
     105 H         0.700443   1.283159   -0.934704 H        1 UNL1     0.0234
     106 H         1.285519   -0.402484   -1.020662 H        1 UNL1     0.0234
     107 H         0.0   -0.0   0.0 H        1 UNL1     0.0234
     108 H         1.217641   3.259224   1.734131 H        1 UNL1     0.2098
     109 H         1.068974   3.062549   -0.858866 H        1 UNL1     0.0234
     110 H         -0.18831   2.325861   -1.902575 H        1 UNL1     0.0234
     111 H         0.046301   4.038665   -1.892447 H        1 UNL1     0.0234
     112 H         -3.503275   -1.563949   1.472822 H        1 UNL1     0.0342
     113 H         -3.166095   0.073485   2.138675 H        1 UNL1     0.0342
     114 H         -4.381661   -0.144616   0.876612 H        1 UNL1     0.0342
     115 H         -2.640462   1.956555   3.320211 H        1 UNL1     0.0234
     116 H         -1.133437   1.908943   4.240751 H        1 UNL1     0.0234
     117 H         -1.599364   3.29928   3.238991 H        1 UNL1     0.0234
     118 H         0.900847   7.635375   -0.77116 H        1 UNL1     0.0309
     119 H         2.167854   7.833296   -2.021592 H        1 UNL1     0.0309
     120 H         1.470272   6.269955   -1.658963 H        1 UNL1     0.0309
     121 H         -0.278605   6.260744   2.844129 H        1 UNL1     0.0524
     122 H         -2.016926   6.078063   2.576315 H        1 UNL1     0.0524
     123 H         -1.261685   5.32714   4.004415 H        1 UNL1     0.0524
@<TRIPOS>BOND
     1     1     2    1
     2     1    42    1
     3     2     3    2
     4     3     4    1
     5     4     5    2
     6     5     7    1
     7     6    75    1
     8     6    76    1
     9     6    77    1
    10     7     9   am
    11     9    10    1
    12    10    11    2
    13    10    43    1
    14    11    14    1
    15    11    15    1
    16    12    13   ar
    17    12    27   ar
    18    12    43    1
    19    13    14    1
    20    13    30   ar
    21    14    17    2
    22    15    16    1
    23    16    17    1
    24    16    18    1
    25    16    22    1
    26    18    19    1
    27    19    20    1
    28    20    21    1
    29    21    22    1
    30    23    24    1
    31    23    88    1
    32    23    89    1
    33    24    25    1
    34    24    26    1
    35    24    90    1
    36    25    91    1
    37    25    92    1
    38    25    93    1
    39    26    94    1
    40    26    95    1
    41    26    96    1
    42    27    28   ar
    43    28    29   ar
    44    29    30   ar
    45    29    31    1
    46    30    33    1
    47    31    32    1
    48    32    33    1
    49    32    35    1
    50    34    97    1
    51    34    98    1
    52    34    99    1
    53    35    61    1
    54    36    37    1
    55    36    60    1
    56    37    38    1
    57    38    39    1
    58    39    40    1
    59    40    41    1
    60    41    42    1
    61    45   100    1
    62    47   101    1
    63    47   102    1
    64    47   103    1
    65    48   104    1
    66    49   105    1
    67    49   106    1
    68    49   107    1
    69    50   108    1
    70    51    59    1
    71    52   109    1
    72    52   110    1
    73    52   111    1
    74    53    54    1
    75    54    55    2
    76    54    56    1
    77    56   112    1
    78    56   113    1
    79    56   114    1
    80    57   115    1
    81    57   116    1
    82    57   117    1
    83    58   118    1
    84    58   119    1
    85    58   120    1
    86    59   121    1
    87    59   122    1
    88    59   123    1
    89    60    61    2
    90     1    47    1
    91     1    62    1
    92     2    63    1
    93     3    64    1
    94     4    65    1
    95     5     6    1
    96     7     8    2
    97     9    78    1
    98    15    79    1
    99    18    80    1
   100    18    81    1
   101    19    82    1
   102    19    83    1
   103    20    23    1
   104    21    84    1
   105    21    85    1
   106    22    86    1
   107    22    87    1
   108    27    45    1
   109    28    34    1
   110    32    58    1
   111    33    46    2
   112    36    51    1
   113    36    66    1
   114    37    52    1
   115    37    67    1
   116    38    53    1
   117    38    68    1
   118    42    48    1
   119    42    72    1
   120    43    44    2
   121    60    73    1
   122    61    74    1
   123    39    69    1
   124    39    57    1
   125    40    70    1
   126    40    50    1
   127    41    71    1
   128    41    49    1
