@<TRIPOS>MOLECULE
*****
 123 128 0 0 0
SMALL
GASTEIGER

@<TRIPOS>ATOM
     1 C         3.312013   4.184074   -1.234374 C.3        1 UNL1     0.0009
     2 C         3.484008   5.791455   -2.141998 C.2        1 UNL1     -0.0787
     3 C         3.956445   6.544304   -3.284831 C.2        1 UNL1     -0.0649
     4 C         3.672071   8.173416   -3.647436 C.2        1 UNL1     -0.0542
     5 C         3.662638   9.149911   -4.673812 C.2        1 UNL1     0.0115
     6 C         4.064908   9.426836   -6.148537 C.3        1 UNL1     -0.0348
     7 C         2.861871   10.520534   -4.434743 C.2        1 UNL1     0.2441
     8 O         3.415113   11.572813   -4.14637 O.2        1 UNL1     -0.2702
     9 N         1.51404   10.492391   -4.83313 N.am        1 UNL1     -0.2772
     10 C         0.718973   10.039066   -3.805664 C.2        1 UNL1     0.1049
     11 C         0.637501   8.728138   -3.667636 C.2        1 UNL1     0.0801
     12 C         0.248292   10.363418   -1.370384 C.ar        1 UNL1     0.0753
     13 C         0.377736   8.944283   -1.236557 C.ar        1 UNL1     0.0305
     14 C         0.446212   8.068697   -2.404338 C.2        1 UNL1     0.0924
     15 N         1.036421   7.746084   -4.494051 N.pl3        1 UNL1     -0.3170
     16 C         0.561493   6.499006   -3.956005 C.3        1 UNL1     0.1275
     17 N         0.467205   6.740436   -2.469215 N.2        1 UNL1     -0.2557
     18 C         -0.871041   6.311358   -4.446246 C.3        1 UNL1     0.0016
     19 C         -0.87871   6.383382   -5.964911 C.3        1 UNL1     0.0026
     20 N         -0.005498   5.341311   -6.48704 N.3        1 UNL1     -0.3018
     21 C         1.3817   5.401739   -6.021854 C.3        1 UNL1     0.0026
     22 C         1.365989   5.323169   -4.494282 C.3        1 UNL1     0.0016
     23 C         -0.170704   5.128258   -7.911105 C.3        1 UNL1     0.0012
     24 C         -1.526551   4.466244   -8.202953 C.3        1 UNL1     -0.0339
     25 C         -2.595705   5.510159   -8.565181 C.3        1 UNL1     -0.0615
     26 C         -1.371979   3.422234   -9.295166 C.3        1 UNL1     -0.0615
     27 C         0.062262   11.179378   -0.256956 C.ar        1 UNL1     0.1347
     28 C         -0.049864   10.689243   1.031937 C.ar        1 UNL1     0.0342
     29 C         0.129541   9.294162   1.14475 C.ar        1 UNL1     0.1435
     30 C         0.352655   8.468354   0.042261 C.ar        1 UNL1     0.0774
     31 O         -0.059428   8.651915   2.318128 O.3        1 UNL1     -0.4436
     32 C         -0.258306   7.278206   1.951732 C.3        1 UNL1     0.3143
     33 C         0.400122   7.130787   0.594915 C.2        1 UNL1     0.2504
     34 C         -0.497846   11.469756   2.236185 C.3        1 UNL1     -0.0327
     35 O         0.49632   6.478684   2.870729 O.2        1 UNL1     -0.4528
     36 C         -1.376805   3.190939   3.171102 C.3        1 UNL1     0.0854
     37 C         -1.777296   2.165637   2.041551 C.3        1 UNL1     0.0236
     38 C         -1.273753   0.662467   2.283765 C.3        1 UNL1     0.1131
     39 C         0.245343   0.38957   2.630387 C.3        1 UNL1     0.0200
     40 C         1.456649   1.18173   1.801136 C.3        1 UNL1     0.0661
     41 C         1.589454   1.305419   0.11452 C.3        1 UNL1     0.0091
     42 C         2.275003   2.648808   -0.929862 C.3        1 UNL1     0.0661
     43 C         0.22907   10.928816   -2.742322 C.2        1 UNL1     0.2131
     44 O         -0.251908   12.013309   -3.016678 O.2        1 UNL1     -0.2851
     45 O         -0.00867   12.554583   -0.469605 O.3        1 UNL1     -0.5056
     46 O         0.876664   6.137631   0.092518 O.2        1 UNL1     -0.2836
     47 C         4.663167   3.786039   -0.581738 C.3        1 UNL1     -0.0566
     48 O         3.081311   1.735247   -1.775078 O.3        1 UNL1     -0.3909
     49 C         0.277291   0.886736   -0.510322 C.3        1 UNL1     -0.0577
     50 O         1.741513   2.429412   2.401023 O.3        1 UNL1     -0.3910
     51 O         -0.488669   2.70879   4.154044 O.3        1 UNL1     -0.3753
     52 C         -1.767445   2.827458   0.624919 C.3        1 UNL1     -0.0564
     53 O         -1.949519   -0.346684   1.402129 O.3        1 UNL1     -0.4608
     54 C         -1.468424   -1.596153   1.110059 C.2        1 UNL1     0.3042
     55 O         -1.056891   -2.003027   0.024273 O.2        1 UNL1     -0.2512
     56 C         -1.409027   -2.511045   2.300083 C.3        1 UNL1     0.0332
     57 C         0.368038   0.299278   4.222545 C.3        1 UNL1     -0.0567
     58 C         -1.784074   7.085277   1.789434 C.3        1 UNL1     0.0210
     59 C         -0.616418   3.328297   5.433012 C.3        1 UNL1     0.0372
     60 C         -0.815959   4.479411   2.680741 C.2        1 UNL1     -0.0208
     61 C         0.242989   5.175333   3.096752 C.2        1 UNL1     0.0882
     62 H         2.732631   4.704203   -0.462044 H        1 UNL1     0.0365
     63 H         3.038177   6.480653   -1.421781 H        1 UNL1     0.0576
     64 H         4.430032   6.0531   -4.137792 H        1 UNL1     0.0615
     65 H         3.277109   8.583106   -2.713819 H        1 UNL1     0.0622
     66 H         -2.326266   3.443652   3.663754 H        1 UNL1     0.0645
     67 H         -2.869289   2.052585   2.157013 H        1 UNL1     0.0362
     68 H         -1.829712   0.428336   3.204424 H        1 UNL1     0.0741
     69 H         0.465453   -0.651381   2.434478 H        1 UNL1     0.0359
     70 H         2.32002   0.54279   2.068354 H        1 UNL1     0.0600
     71 H         2.221769   0.420412   -0.094996 H        1 UNL1     0.0348
     72 H         2.691458   2.804149   0.075996 H        1 UNL1     0.0602
     73 H         -1.477798   4.898097   1.963859 H        1 UNL1     0.0628
     74 H         0.999674   4.795002   3.783785 H        1 UNL1     0.1022
     75 H         4.544576   8.525087   -6.599979 H        1 UNL1     0.0279
     76 H         3.25295   9.632429   -6.842457 H        1 UNL1     0.0279
     77 H         4.871897   10.168885   -6.237045 H        1 UNL1     0.0279
     78 H         1.401566   9.849356   -5.614112 H        1 UNL1     0.1553
     79 H         1.222095   7.881236   -5.470878 H        1 UNL1     0.1484
     80 H         -1.247436   5.345126   -4.089193 H        1 UNL1     0.0317
     81 H         -1.531339   7.078796   -4.028279 H        1 UNL1     0.0317
     82 H         -0.571381   7.375526   -6.327004 H        1 UNL1     0.0428
     83 H         -1.909836   6.248982   -6.29319 H        1 UNL1     0.0428
     84 H         1.996171   4.563408   -6.364545 H        1 UNL1     0.0428
     85 H         1.903311   6.289327   -6.405815 H        1 UNL1     0.0428
     86 H         2.394934   5.235858   -4.198246 H        1 UNL1     0.0317
     87 H         0.92763   4.370576   -4.172561 H        1 UNL1     0.0317
     88 H         -0.145431   6.106881   -8.408046 H        1 UNL1     0.0429
     89 H         0.656106   4.53629   -8.324302 H        1 UNL1     0.0429
     90 H         -1.859044   3.920591   -7.311929 H        1 UNL1     0.0308
     91 H         -2.292728   6.10561   -9.431636 H        1 UNL1     0.0233
     92 H         -3.551428   5.026019   -8.779216 H        1 UNL1     0.0233
     93 H         -2.78625   6.21429   -7.746202 H        1 UNL1     0.0233
     94 H         -2.356375   3.085877   -9.638188 H        1 UNL1     0.0233
     95 H         -0.845481   3.85263   -10.151626 H        1 UNL1     0.0233
     96 H         -0.814109   2.551671   -8.938978 H        1 UNL1     0.0233
     97 H         -0.540153   10.852911   3.128902 H        1 UNL1     0.0280
     98 H         0.18693   12.29454   2.472973 H        1 UNL1     0.0280
     99 H         -1.503055   11.884029   2.054451 H        1 UNL1     0.0280
     100 H         -0.777638   12.966246   -0.116272 H        1 UNL1     0.2922
     101 H         4.540316   2.862766   -0.015937 H        1 UNL1     0.0236
     102 H         5.097985   4.581362   0.022728 H        1 UNL1     0.0236
     103 H         5.433942   3.552195   -1.335007 H        1 UNL1     0.0236
     104 H         3.981949   1.701862   -1.397313 H        1 UNL1     0.2098
     105 H         -0.528163   1.60657   -0.388284 H        1 UNL1     0.0234
     106 H         0.34851   0.572426   -1.551506 H        1 UNL1     0.0234
     107 H         0.0   -0.0   0.0 H        1 UNL1     0.0234
     108 H         0.94153   2.982723   2.313606 H        1 UNL1     0.2098
     109 H         -0.779609   3.230077   0.360744 H        1 UNL1     0.0234
     110 H         -2.112446   2.154106   -0.167112 H        1 UNL1     0.0234
     111 H         -2.4594   3.678477   0.570965 H        1 UNL1     0.0234
     112 H         -1.012964   -3.486096   2.00049 H        1 UNL1     0.0342
     113 H         -0.825055   -2.085734   3.114902 H        1 UNL1     0.0342
     114 H         -2.433173   -2.66219   2.668111 H        1 UNL1     0.0342
     115 H         -0.242412   -0.516554   4.633589 H        1 UNL1     0.0234
     116 H         1.38936   0.158297   4.581813 H        1 UNL1     0.0234
     117 H         -0.060166   1.170853   4.746893 H        1 UNL1     0.0234
     118 H         -2.284544   6.905911   2.757092 H        1 UNL1     0.0309
     119 H         -2.27193   7.924816   1.284091 H        1 UNL1     0.0309
     120 H         -2.035203   6.192763   1.205945 H        1 UNL1     0.0309
     121 H         -0.389875   4.387092   5.310589 H        1 UNL1     0.0524
     122 H         -1.640735   3.252216   5.834288 H        1 UNL1     0.0524
     123 H         0.073676   2.876632   6.140021 H        1 UNL1     0.0524
@<TRIPOS>BOND
     1     1     2    1
     2     1    42    1
     3     2     3    2
     4     3     4    1
     5     4     5    2
     6     5     7    1
     7     6    75    1
     8     6    76    1
     9     6    77    1
    10     7     9   am
    11     9    10    1
    12    10    11    2
    13    10    43    1
    14    11    14    1
    15    11    15    1
    16    12    13   ar
    17    12    27   ar
    18    12    43    1
    19    13    14    1
    20    13    30   ar
    21    14    17    2
    22    15    16    1
    23    16    17    1
    24    16    18    1
    25    16    22    1
    26    18    19    1
    27    19    20    1
    28    20    21    1
    29    21    22    1
    30    23    24    1
    31    23    88    1
    32    23    89    1
    33    24    25    1
    34    24    26    1
    35    24    90    1
    36    25    91    1
    37    25    92    1
    38    25    93    1
    39    26    94    1
    40    26    95    1
    41    26    96    1
    42    27    28   ar
    43    28    29   ar
    44    29    30   ar
    45    29    31    1
    46    30    33    1
    47    31    32    1
    48    32    33    1
    49    32    35    1
    50    34    97    1
    51    34    98    1
    52    34    99    1
    53    35    61    1
    54    36    37    1
    55    36    60    1
    56    37    38    1
    57    38    39    1
    58    39    40    1
    59    40    41    1
    60    41    42    1
    61    45   100    1
    62    47   101    1
    63    47   102    1
    64    47   103    1
    65    48   104    1
    66    49   105    1
    67    49   106    1
    68    49   107    1
    69    50   108    1
    70    51    59    1
    71    52   109    1
    72    52   110    1
    73    52   111    1
    74    53    54    1
    75    54    55    2
    76    54    56    1
    77    56   112    1
    78    56   113    1
    79    56   114    1
    80    57   115    1
    81    57   116    1
    82    57   117    1
    83    58   118    1
    84    58   119    1
    85    58   120    1
    86    59   121    1
    87    59   122    1
    88    59   123    1
    89    60    61    2
    90     1    47    1
    91     1    62    1
    92     2    63    1
    93     3    64    1
    94     4    65    1
    95     5     6    1
    96     7     8    2
    97     9    78    1
    98    15    79    1
    99    18    80    1
   100    18    81    1
   101    19    82    1
   102    19    83    1
   103    20    23    1
   104    21    84    1
   105    21    85    1
   106    22    86    1
   107    22    87    1
   108    27    45    1
   109    28    34    1
   110    32    58    1
   111    33    46    2
   112    36    51    1
   113    36    66    1
   114    37    52    1
   115    37    67    1
   116    38    53    1
   117    38    68    1
   118    42    48    1
   119    42    72    1
   120    43    44    2
   121    60    73    1
   122    61    74    1
   123    39    69    1
   124    39    57    1
   125    40    70    1
   126    40    50    1
   127    41    71    1
   128    41    49    1
