@<TRIPOS>MOLECULE
*****
 123 128 0 0 0
SMALL
GASTEIGER

@<TRIPOS>ATOM
     1 C         -2.134179   -4.628094   0.046303 C.3        1 UNL1     0.0009
     2 C         -3.769733   -5.499189   -0.010191 C.2        1 UNL1     -0.0787
     3 C         -4.957392   -5.985923   0.659587 C.2        1 UNL1     -0.0649
     4 C         -6.327705   -6.695652   -0.036748 C.2        1 UNL1     -0.0542
     5 C         -7.697062   -7.00621   0.151649 C.2        1 UNL1     0.0115
     6 C         -8.843248   -7.049087   1.199382 C.3        1 UNL1     -0.0348
     7 C         -8.598826   -7.351839   -1.130674 C.2        1 UNL1     0.2441
     8 O         -8.912057   -8.494433   -1.435454 O.2        1 UNL1     -0.2702
     9 N         -9.22065   -6.242499   -1.729715 N.am        1 UNL1     -0.2772
     10 C         -8.390486   -5.676213   -2.669647 C.2        1 UNL1     0.1049
     11 C         -7.480296   -4.835996   -2.211595 C.2        1 UNL1     0.0801
     12 C         -6.942876   -6.235155   -4.631621 C.ar        1 UNL1     0.0753
     13 C         -5.912526   -5.478986   -3.987263 C.ar        1 UNL1     0.0305
     14 C         -6.191164   -4.64616   -2.819439 C.2        1 UNL1     0.0924
     15 N         -7.357014   -4.273955   -0.996919 N.pl3        1 UNL1     -0.3170
     16 C         -6.297662   -3.302853   -1.067561 C.3        1 UNL1     0.1275
     17 N         -5.391339   -3.811317   -2.161986 N.2        1 UNL1     -0.2557
     18 C         -6.907317   -2.005922   -1.591004 C.3        1 UNL1     0.0016
     19 C         -8.06192   -1.610599   -0.684251 C.3        1 UNL1     0.0026
     20 N         -7.555904   -1.442142   0.670961 N.3        1 UNL1     -0.3018
     21 C         -6.895645   -2.619376   1.238895 C.3        1 UNL1     0.0026
     22 C         -5.73646   -2.996192   0.314668 C.3        1 UNL1     0.0016
     23 C         -8.50173   -0.781179   1.547992 C.3        1 UNL1     0.0012
     24 C         -9.765131   -0.377769   0.771566 C.3        1 UNL1     -0.0339
     25 C         -10.737014   -1.560214   0.625549 C.3        1 UNL1     -0.0615
     26 C         -10.429732   0.81272   1.440761 C.3        1 UNL1     -0.0615
     27 C         -6.696536   -6.929824   -5.813514 C.ar        1 UNL1     0.1347
     28 C         -5.475516   -6.910723   -6.463742 C.ar        1 UNL1     0.0342
     29 C         -4.462779   -6.199834   -5.785388 C.ar        1 UNL1     0.1435
     30 C         -4.685295   -5.529032   -4.582171 C.ar        1 UNL1     0.0774
     31 O         -3.249484   -5.996697   -6.343651 O.3        1 UNL1     -0.4436
     32 C         -2.697618   -4.887584   -5.618263 C.3        1 UNL1     0.3143
     33 C         -3.422586   -4.884386   -4.287615 C.2        1 UNL1     0.2504
     34 C         -5.208394   -7.419199   -7.853057 C.3        1 UNL1     -0.0327
     35 O         -1.325568   -5.197592   -5.345084 O.2        1 UNL1     -0.4528
     36 C         0.491324   -1.866792   -5.232097 C.3        1 UNL1     0.0854
     37 C         0.213897   -0.611025   -4.319077 C.3        1 UNL1     0.0236
     38 C         1.473444   -0.104638   -3.465345 C.3        1 UNL1     0.1131
     39 C         2.292676   -1.134932   -2.588063 C.3        1 UNL1     0.0200
     40 C         1.500147   -2.272004   -1.659945 C.3        1 UNL1     0.0661
     41 C         0.226785   -1.962827   -0.582648 C.3        1 UNL1     0.0091
     42 C         -1.208093   -3.00201   -0.106595 C.3        1 UNL1     0.0661
     43 C         -8.306156   -6.182318   -4.047726 C.2        1 UNL1     0.2131
     44 O         -9.317983   -6.433777   -4.676782 O.2        1 UNL1     -0.2851
     45 O         -7.74134   -7.678364   -6.351572 O.3        1 UNL1     -0.5056
     46 O         -3.035972   -4.464476   -3.21988 O.2        1 UNL1     -0.2836
     47 C         -1.056113   -5.545857   0.683065 C.3        1 UNL1     -0.0566
     48 O         -1.036349   -2.772961   1.348451 O.3        1 UNL1     -0.3909
     49 C         -0.303391   -0.570037   -0.840614 C.3        1 UNL1     -0.0577
     50 O         1.220617   -3.431451   -2.418411 O.3        1 UNL1     -0.3910
     51 O         1.743473   -2.490628   -5.05779 O.3        1 UNL1     -0.3753
     52 C         -1.235527   -0.62684   -3.732675 C.3        1 UNL1     -0.0564
     53 O         1.295158   1.269703   -2.889387 O.3        1 UNL1     -0.4608
     54 C         1.98409   1.779146   -1.819915 C.2        1 UNL1     0.3042
     55 O         2.237305   1.213925   -0.756784 O.2        1 UNL1     -0.2512
     56 C         2.512349   3.166416   -2.050434 C.3        1 UNL1     0.0332
     57 C         3.542233   -1.623297   -3.458857 C.3        1 UNL1     -0.0567
     58 C         -3.089043   -3.613621   -6.402695 C.3        1 UNL1     0.0210
     59 C         2.169864   -3.296064   -6.155664 C.3        1 UNL1     0.0372
     60 C         -0.537235   -2.93978   -5.155128 C.2        1 UNL1     -0.0208
     61 C         -0.400573   -4.262657   -5.054797 C.2        1 UNL1     0.0882
     62 H         -2.050942   -4.754585   -1.039875 H        1 UNL1     0.0365
     63 H         -3.797008   -5.813467   -1.055636 H        1 UNL1     0.0576
     64 H         -5.145147   -5.777713   1.715288 H        1 UNL1     0.0615
     65 H         -6.009133   -6.932959   -1.055414 H        1 UNL1     0.0622
     66 H         0.444253   -1.477362   -6.258827 H        1 UNL1     0.0645
     67 H         0.086725   0.218763   -5.035903 H        1 UNL1     0.0362
     68 H         2.14882   0.181578   -4.285998 H        1 UNL1     0.0741
     69 H         2.866529   -0.586856   -1.85273 H        1 UNL1     0.0359
     70 H         2.323529   -2.574788   -0.985094 H        1 UNL1     0.0600
     71 H         0.798719   -1.80747   0.353147 H        1 UNL1     0.0348
     72 H         -0.465425   -3.689343   -0.5371 H        1 UNL1     0.0602
     73 H         -1.496593   -2.516545   -5.321719 H        1 UNL1     0.0628
     74 H         0.537301   -4.770152   -4.826589 H        1 UNL1     0.1022
     75 H         -8.497828   -7.545423   2.138195 H        1 UNL1     0.0279
     76 H         -9.205765   -6.089604   1.561379 H        1 UNL1     0.0279
     77 H         -9.670752   -7.70782   0.897708 H        1 UNL1     0.0279
     78 H         -9.411595   -5.534752   -1.02352 H        1 UNL1     0.1553
     79 H         -8.106564   -4.213538   -0.332496 H        1 UNL1     0.1484
     80 H         -6.132323   -1.230277   -1.613908 H        1 UNL1     0.0317
     81 H         -7.26006   -2.12707   -2.620832 H        1 UNL1     0.0317
     82 H         -8.874905   -2.350924   -0.714036 H        1 UNL1     0.0428
     83 H         -8.483242   -0.684539   -1.076617 H        1 UNL1     0.0428
     84 H         -6.454985   -2.442162   2.22491 H        1 UNL1     0.0428
     85 H         -7.602788   -3.443417   1.406888 H        1 UNL1     0.0428
     86 H         -5.198715   -3.772647   0.826465 H        1 UNL1     0.0317
     87 H         -5.011919   -2.174023   0.26802 H        1 UNL1     0.0317
     88 H         -8.787595   -1.488678   2.337309 H        1 UNL1     0.0429
     89 H         -8.04724   0.086618   2.043109 H        1 UNL1     0.0429
     90 H         -9.477573   -0.036403   -0.229929 H        1 UNL1     0.0308
     91 H         -10.828214   -2.118105   1.562321 H        1 UNL1     0.0233
     92 H         -11.725748   -1.211856   0.317877 H        1 UNL1     0.0233
     93 H         -10.412742   -2.275217   -0.140254 H        1 UNL1     0.0233
     94 H         -11.425068   0.534784   1.803932 H        1 UNL1     0.0233
     95 H         -9.836133   1.137937   2.299735 H        1 UNL1     0.0233
     96 H         -10.536659   1.651779   0.747568 H        1 UNL1     0.0233
     97 H         -5.253431   -8.502897   -7.905994 H        1 UNL1     0.0280
     98 H         -5.947212   -7.051971   -8.577313 H        1 UNL1     0.0280
     99 H         -4.204517   -7.098843   -8.176629 H        1 UNL1     0.0280
     100 H         -8.596528   -7.435245   -6.043076 H        1 UNL1     0.2922
     101 H         -0.637793   -6.204347   -0.077892 H        1 UNL1     0.0236
     102 H         -1.420888   -6.099655   1.547489 H        1 UNL1     0.0236
     103 H         -0.193831   -4.971406   1.060783 H        1 UNL1     0.0236
     104 H         -0.429738   -3.460874   1.685748 H        1 UNL1     0.2098
     105 H         0.101264   -0.092986   -1.729707 H        1 UNL1     0.0234
     106 H         -1.390079   -0.487004   -0.82874 H        1 UNL1     0.0234
     107 H         0.0   0.0   0.0 H        1 UNL1     0.0234
     108 H         2.058641   -3.717835   -2.830075 H        1 UNL1     0.2098
     109 H         -1.427707   -1.520476   -3.122599 H        1 UNL1     0.0234
     110 H         -1.475078   0.27107   -3.15292 H        1 UNL1     0.0234
     111 H         -1.993446   -0.640752   -4.527226 H        1 UNL1     0.0234
     112 H         1.680263   3.871316   -2.140396 H        1 UNL1     0.0342
     113 H         3.204188   3.476352   -1.268678 H        1 UNL1     0.0342
     114 H         3.061689   3.170652   -3.001944 H        1 UNL1     0.0342
     115 H         3.601202   -2.719255   -3.509727 H        1 UNL1     0.0234
     116 H         3.543642   -1.246472   -4.483576 H        1 UNL1     0.0234
     117 H         4.517685   -1.378267   -3.00455 H        1 UNL1     0.0234
     118 H         -3.325707   -2.769668   -5.731324 H        1 UNL1     0.0309
     119 H         -2.323723   -3.297886   -7.118795 H        1 UNL1     0.0309
     120 H         -4.010569   -3.742503   -6.980869 H        1 UNL1     0.0309
     121 H         1.887679   -4.32585   -5.938253 H        1 UNL1     0.0524
     122 H         1.678479   -3.009598   -7.100394 H        1 UNL1     0.0524
     123 H         3.246287   -3.220908   -6.281206 H        1 UNL1     0.0524
@<TRIPOS>BOND
     1     1     2    1
     2     1    42    1
     3     2     3    2
     4     3     4    1
     5     4     5    2
     6     5     7    1
     7     6    75    1
     8     6    76    1
     9     6    77    1
    10     7     9   am
    11     9    10    1
    12    10    11    2
    13    10    43    1
    14    11    14    1
    15    11    15    1
    16    12    13   ar
    17    12    27   ar
    18    12    43    1
    19    13    14    1
    20    13    30   ar
    21    14    17    2
    22    15    16    1
    23    16    17    1
    24    16    18    1
    25    16    22    1
    26    18    19    1
    27    19    20    1
    28    20    21    1
    29    21    22    1
    30    23    24    1
    31    23    88    1
    32    23    89    1
    33    24    25    1
    34    24    26    1
    35    24    90    1
    36    25    91    1
    37    25    92    1
    38    25    93    1
    39    26    94    1
    40    26    95    1
    41    26    96    1
    42    27    28   ar
    43    28    29   ar
    44    29    30   ar
    45    29    31    1
    46    30    33    1
    47    31    32    1
    48    32    33    1
    49    32    35    1
    50    34    97    1
    51    34    98    1
    52    34    99    1
    53    35    61    1
    54    36    37    1
    55    36    60    1
    56    37    38    1
    57    38    39    1
    58    39    40    1
    59    40    41    1
    60    41    42    1
    61    45   100    1
    62    47   101    1
    63    47   102    1
    64    47   103    1
    65    48   104    1
    66    49   105    1
    67    49   106    1
    68    49   107    1
    69    50   108    1
    70    51    59    1
    71    52   109    1
    72    52   110    1
    73    52   111    1
    74    53    54    1
    75    54    55    2
    76    54    56    1
    77    56   112    1
    78    56   113    1
    79    56   114    1
    80    57   115    1
    81    57   116    1
    82    57   117    1
    83    58   118    1
    84    58   119    1
    85    58   120    1
    86    59   121    1
    87    59   122    1
    88    59   123    1
    89    60    61    2
    90     1    47    1
    91     1    62    1
    92     2    63    1
    93     3    64    1
    94     4    65    1
    95     5     6    1
    96     7     8    2
    97     9    78    1
    98    15    79    1
    99    18    80    1
   100    18    81    1
   101    19    82    1
   102    19    83    1
   103    20    23    1
   104    21    84    1
   105    21    85    1
   106    22    86    1
   107    22    87    1
   108    27    45    1
   109    28    34    1
   110    32    58    1
   111    33    46    2
   112    36    51    1
   113    36    66    1
   114    37    52    1
   115    37    67    1
   116    38    53    1
   117    38    68    1
   118    42    48    1
   119    42    72    1
   120    43    44    2
   121    60    73    1
   122    61    74    1
   123    39    69    1
   124    39    57    1
   125    40    70    1
   126    40    50    1
   127    41    71    1
   128    41    49    1
