@<TRIPOS>MOLECULE
*****
 123 128 0 0 0
SMALL
GASTEIGER

@<TRIPOS>ATOM
     1 C         0.335754   -0.127159   4.110105 C.3        1 UNL1     0.0009
     2 C         -0.809333   -0.947286   5.315594 C.2        1 UNL1     -0.0787
     3 C         -1.921754   -0.875559   6.239402 C.2        1 UNL1     -0.0649
     4 C         -2.67487   -2.149213   7.062189 C.2        1 UNL1     -0.0542
     5 C         -3.848138   -2.559675   7.741925 C.2        1 UNL1     0.0115
     6 C         -5.193246   -2.062606   8.339361 C.3        1 UNL1     -0.0348
     7 C         -4.113259   -4.128367   7.956186 C.2        1 UNL1     0.2441
     8 O         -3.91634   -4.697132   9.021201 O.2        1 UNL1     -0.2702
     9 N         -4.831316   -4.75119   6.920504 N.am        1 UNL1     -0.2772
     10 C         -3.973108   -5.196322   5.941393 C.2        1 UNL1     0.1049
     11 C         -3.592282   -4.299707   5.04961 C.2        1 UNL1     0.0801
     12 C         -1.86384   -6.495177   5.593114 C.ar        1 UNL1     0.0753
     13 C         -1.410108   -5.394805   4.798182 C.ar        1 UNL1     0.0305
     14 C         -2.312959   -4.319517   4.393625 C.2        1 UNL1     0.0924
     15 N         -4.065645   -3.064827   4.809764 N.pl3        1 UNL1     -0.3170
     16 C         -3.422158   -2.570699   3.621481 C.3        1 UNL1     0.1275
     17 N         -2.093554   -3.28574   3.586101 N.2        1 UNL1     -0.2557
     18 C         -4.215711   -3.092279   2.427357 C.3        1 UNL1     0.0016
     19 C         -5.665659   -2.661582   2.581432 C.3        1 UNL1     0.0026
     20 N         -5.717011   -1.207727   2.64997 N.3        1 UNL1     -0.3018
     21 C         -4.932446   -0.608196   3.731353 C.3        1 UNL1     0.0026
     22 C         -3.478773   -1.050228   3.554334 C.3        1 UNL1     0.0016
     23 C         -7.059297   -0.682988   2.496473 C.3        1 UNL1     0.0012
     24 C         -7.549224   -0.871062   1.05205 C.3        1 UNL1     -0.0339
     25 C         -8.490284   -2.080887   0.930443 C.3        1 UNL1     -0.0615
     26 C         -8.210183   0.403325   0.556218 C.3        1 UNL1     -0.0615
     27 C         -1.030272   -7.575389   5.873155 C.ar        1 UNL1     0.1347
     28 C         0.258561   -7.685652   5.38244 C.ar        1 UNL1     0.0342
     29 C         0.700379   -6.568003   4.642967 C.ar        1 UNL1     0.1435
     30 C         -0.111253   -5.462643   4.384795 C.ar        1 UNL1     0.0774
     31 O         1.891888   -6.570463   4.006329 O.3        1 UNL1     -0.4436
     32 C         1.779427   -5.531285   3.022289 C.3        1 UNL1     0.3143
     33 C         0.69963   -4.60567   3.545252 C.2        1 UNL1     0.2504
     34 C         1.117548   -8.918537   5.429739 C.3        1 UNL1     -0.0327
     35 O         3.007085   -4.792523   3.040709 O.2        1 UNL1     -0.4528
     36 C         3.488143   -3.485439   -0.490325 C.3        1 UNL1     0.0854
     37 C         2.531316   -2.578409   -1.355947 C.3        1 UNL1     0.0236
     38 C         3.201315   -1.235258   -1.920562 C.3        1 UNL1     0.1131
     39 C         3.977114   -0.270776   -0.935585 C.3        1 UNL1     0.0200
     40 C         3.3432   0.093707   0.563663 C.3        1 UNL1     0.0661
     41 C         1.76033   0.620096   0.871962 C.3        1 UNL1     0.0091
     42 C         0.673474   0.337256   2.32253 C.3        1 UNL1     0.0661
     43 C         -3.28054   -6.490136   6.034924 C.2        1 UNL1     0.2131
     44 O         -3.888298   -7.494527   6.358292 O.2        1 UNL1     -0.2851
     45 O         -1.534175   -8.583729   6.692162 O.3        1 UNL1     -0.5056
     46 O         0.554358   -3.42235   3.334295 O.2        1 UNL1     -0.2836
     47 C         1.382885   0.736765   4.863187 C.3        1 UNL1     -0.0566
     48 O         0.273351   1.760047   2.443703 O.3        1 UNL1     -0.3909
     49 C         0.91871   0.384955   -0.362493 C.3        1 UNL1     -0.0577
     50 O         3.7243   -0.876472   1.518251 O.3        1 UNL1     -0.3910
     51 O         4.744852   -2.929911   -0.174885 O.3        1 UNL1     -0.3753
     52 C         1.05997   -2.614961   -0.827975 C.3        1 UNL1     -0.0564
     53 O         2.404013   -0.578037   -3.009 O.3        1 UNL1     -0.4608
     54 C         2.496682   0.738369   -3.378345 C.2        1 UNL1     0.3042
     55 O         1.719271   1.649551   -3.096888 O.2        1 UNL1     -0.2512
     56 C         3.735052   1.055908   -4.16722 C.3        1 UNL1     0.0332
     57 C         5.529893   -0.645472   -1.017163 C.3        1 UNL1     -0.0567
     58 C         1.272353   -6.207987   1.7275 C.3        1 UNL1     0.0210
     59 C         5.781302   -3.883455   0.054007 C.3        1 UNL1     0.0372
     60 C         2.903257   -3.976885   0.786996 C.2        1 UNL1     -0.0208
     61 C         3.425008   -4.02846   2.013316 C.2        1 UNL1     0.0882
     62 H         0.8072   -1.09997   3.925472 H        1 UNL1     0.0365
     63 H         -0.387615   -1.954163   5.344275 H        1 UNL1     0.0576
     64 H         -2.50259   0.04081   6.365908 H        1 UNL1     0.0615
     65 H         -1.980737   -2.985095   6.939861 H        1 UNL1     0.0622
     66 H         3.655544   -4.378713   -1.108456 H        1 UNL1     0.0645
     67 H         2.381778   -3.156219   -2.284567 H        1 UNL1     0.0362
     68 H         3.975051   -1.67411   -2.56884 H        1 UNL1     0.0741
     69 H         4.064751   0.702844   -1.399041 H        1 UNL1     0.0359
     70 H         3.950628   0.983813   0.816257 H        1 UNL1     0.0600
     71 H         1.909234   1.716819   0.827443 H        1 UNL1     0.0348
     72 H         1.697952   0.134746   2.667131 H        1 UNL1     0.0602
     73 H         1.96918   -4.440642   0.587804 H        1 UNL1     0.0628
     74 H         4.347457   -3.529632   2.312473 H        1 UNL1     0.1022
     75 H         -5.345444   -0.979357   8.114768 H        1 UNL1     0.0279
     76 H         -6.09819   -2.514227   7.939131 H        1 UNL1     0.0279
     77 H         -5.194261   -2.058206   9.439215 H        1 UNL1     0.0279
     78 H         -5.464073   -4.079464   6.490994 H        1 UNL1     0.1553
     79 H         -4.967469   -2.745495   5.112539 H        1 UNL1     0.1484
     80 H         -3.775763   -2.69498   1.504662 H        1 UNL1     0.0317
     81 H         -4.15078   -4.18362   2.360956 H        1 UNL1     0.0317
     82 H         -6.133561   -3.116361   3.466958 H        1 UNL1     0.0428
     83 H         -6.213783   -3.045438   1.720465 H        1 UNL1     0.0428
     84 H         -4.923488   0.486045   3.712173 H        1 UNL1     0.0428
     85 H         -5.344   -0.854346   4.719963 H        1 UNL1     0.0428
     86 H         -2.9157   -0.490174   4.277712 H        1 UNL1     0.0317
     87 H         -3.090989   -0.68733   2.594634 H        1 UNL1     0.0317
     88 H         -7.7239   -1.243648   3.16674 H        1 UNL1     0.0429
     89 H         -7.112416   0.370903   2.798574 H        1 UNL1     0.0429
     90 H         -6.684562   -1.034109   0.397842 H        1 UNL1     0.0308
     91 H         -9.237343   -2.085604   1.729807 H        1 UNL1     0.0233
     92 H         -8.999383   -2.078655   -0.036212 H        1 UNL1     0.0233
     93 H         -7.953435   -3.035324   0.991106 H        1 UNL1     0.0233
     94 H         -8.884748   0.179333   -0.277224 H        1 UNL1     0.0233
     95 H         -8.802584   0.853261   1.357829 H        1 UNL1     0.0233
     96 H         -7.468435   1.13068   0.214556 H        1 UNL1     0.0233
     97 H         2.041787   -8.792768   4.873687 H        1 UNL1     0.0280
     98 H         1.415949   -9.175941   6.454413 H        1 UNL1     0.0280
     99 H         0.566477   -9.769122   4.996242 H        1 UNL1     0.0280
     100 H         -1.417088   -9.455338   6.357185 H        1 UNL1     0.2922
     101 H         2.141161   1.088078   4.163721 H        1 UNL1     0.0236
     102 H         1.821845   0.227609   5.720542 H        1 UNL1     0.0236
     103 H         0.938738   1.656302   5.279573 H        1 UNL1     0.0236
     104 H         0.927339   2.202341   3.01959 H        1 UNL1     0.2098
     105 H         0.70043   1.28297   -0.934973 H        1 UNL1     0.0234
     106 H         1.285585   -0.402668   -1.020506 H        1 UNL1     0.0234
     107 H         0.0   -0.0   0.0 H        1 UNL1     0.0234
     108 H         3.267865   -1.707786   1.285114 H        1 UNL1     0.2098
     109 H         0.984114   -2.279551   0.215796 H        1 UNL1     0.0234
     110 H         0.365357   -2.039355   -1.449211 H        1 UNL1     0.0234
     111 H         0.649604   -3.633444   -0.843464 H        1 UNL1     0.0234
     112 H         3.757642   2.12236   -4.411178 H        1 UNL1     0.0342
     113 H         4.641877   0.75538   -3.64454 H        1 UNL1     0.0342
     114 H         3.693646   0.495287   -5.11123 H        1 UNL1     0.0342
     115 H         5.894778   -0.651026   -2.05351 H        1 UNL1     0.0234
     116 H         6.178037   0.020795   -0.444409 H        1 UNL1     0.0234
     117 H         5.74909   -1.682114   -0.708511 H        1 UNL1     0.0234
     118 H         2.071751   -6.310615   0.972889 H        1 UNL1     0.0309
     119 H         0.818806   -7.1884   1.904385 H        1 UNL1     0.0309
     120 H         0.512633   -5.611157   1.211046 H        1 UNL1     0.0309
     121 H         6.519162   -3.418044   0.706932 H        1 UNL1     0.0524
     122 H         5.411648   -4.789036   0.563238 H        1 UNL1     0.0524
     123 H         6.241806   -4.171166   -0.886871 H        1 UNL1     0.0524
@<TRIPOS>BOND
     1     1     2    1
     2     1    42    1
     3     2     3    2
     4     3     4    1
     5     4     5    2
     6     5     7    1
     7     6    75    1
     8     6    76    1
     9     6    77    1
    10     7     9   am
    11     9    10    1
    12    10    11    2
    13    10    43    1
    14    11    14    1
    15    11    15    1
    16    12    13   ar
    17    12    27   ar
    18    12    43    1
    19    13    14    1
    20    13    30   ar
    21    14    17    2
    22    15    16    1
    23    16    17    1
    24    16    18    1
    25    16    22    1
    26    18    19    1
    27    19    20    1
    28    20    21    1
    29    21    22    1
    30    23    24    1
    31    23    88    1
    32    23    89    1
    33    24    25    1
    34    24    26    1
    35    24    90    1
    36    25    91    1
    37    25    92    1
    38    25    93    1
    39    26    94    1
    40    26    95    1
    41    26    96    1
    42    27    28   ar
    43    28    29   ar
    44    29    30   ar
    45    29    31    1
    46    30    33    1
    47    31    32    1
    48    32    33    1
    49    32    35    1
    50    34    97    1
    51    34    98    1
    52    34    99    1
    53    35    61    1
    54    36    37    1
    55    36    60    1
    56    37    38    1
    57    38    39    1
    58    39    40    1
    59    40    41    1
    60    41    42    1
    61    45   100    1
    62    47   101    1
    63    47   102    1
    64    47   103    1
    65    48   104    1
    66    49   105    1
    67    49   106    1
    68    49   107    1
    69    50   108    1
    70    51    59    1
    71    52   109    1
    72    52   110    1
    73    52   111    1
    74    53    54    1
    75    54    55    2
    76    54    56    1
    77    56   112    1
    78    56   113    1
    79    56   114    1
    80    57   115    1
    81    57   116    1
    82    57   117    1
    83    58   118    1
    84    58   119    1
    85    58   120    1
    86    59   121    1
    87    59   122    1
    88    59   123    1
    89    60    61    2
    90     1    47    1
    91     1    62    1
    92     2    63    1
    93     3    64    1
    94     4    65    1
    95     5     6    1
    96     7     8    2
    97     9    78    1
    98    15    79    1
    99    18    80    1
   100    18    81    1
   101    19    82    1
   102    19    83    1
   103    20    23    1
   104    21    84    1
   105    21    85    1
   106    22    86    1
   107    22    87    1
   108    27    45    1
   109    28    34    1
   110    32    58    1
   111    33    46    2
   112    36    51    1
   113    36    66    1
   114    37    52    1
   115    37    67    1
   116    38    53    1
   117    38    68    1
   118    42    48    1
   119    42    72    1
   120    43    44    2
   121    60    73    1
   122    61    74    1
   123    39    69    1
   124    39    57    1
   125    40    70    1
   126    40    50    1
   127    41    71    1
   128    41    49    1
