@<TRIPOS>MOLECULE
*****
 123 128 0 0 0
SMALL
GASTEIGER

@<TRIPOS>ATOM
     1 C         -2.228246   -2.40556   -2.538215 C.3        1 UNL1     0.0009
     2 C         -1.632386   -3.864687   -3.5144 C.2        1 UNL1     -0.0787
     3 C         -1.184936   -4.4414   -4.764695 C.2        1 UNL1     -0.0649
     4 C         -0.594872   -6.004674   -5.037381 C.2        1 UNL1     -0.0542
     5 C         0.161068   -6.824296   -5.911367 C.2        1 UNL1     0.0115
     6 C         0.835773   -6.883233   -7.309445 C.3        1 UNL1     -0.0348
     7 C         0.73   -8.223114   -5.366743 C.2        1 UNL1     0.2441
     8 O         0.214789   -9.300134   -5.633411 O.2        1 UNL1     -0.2702
     9 N         2.005864   -8.151992   -4.780856 N.am        1 UNL1     -0.2772
     10 C         1.90308   -7.858484   -3.440479 C.2        1 UNL1     0.1049
     11 C         1.762746   -6.581697   -3.133327 C.2        1 UNL1     0.0801
     12 C         0.709494   -8.532753   -1.3481 C.ar        1 UNL1     0.0753
     13 C         0.402945   -7.146127   -1.16948 C.ar        1 UNL1     0.0305
     14 C         1.032472   -6.111797   -1.987347 C.2        1 UNL1     0.0924
     15 N         1.911859   -5.48748   -3.899475 N.pl3        1 UNL1     -0.3170
     16 C         1.815666   -4.335132   -3.043265 C.3        1 UNL1     0.1275
     17 N         0.944545   -4.787777   -1.896973 N.2        1 UNL1     -0.2557
     18 C         3.201453   -4.093876   -2.452427 C.3        1 UNL1     0.0016
     19 C         4.197315   -3.94792   -3.591964 C.3        1 UNL1     0.0026
     20 N         3.785146   -2.833015   -4.433469 N.3        1 UNL1     -0.3018
     21 C         2.43898   -2.945245   -4.99881 C.3        1 UNL1     0.0026
     22 C         1.454482   -3.086234   -3.836579 C.3        1 UNL1     0.0016
     23 C         4.814479   -2.420074   -5.366526 C.3        1 UNL1     0.0012
     24 C         6.103174   -2.047598   -4.61667 C.3        1 UNL1     -0.0339
     25 C         6.667728   -3.24743   -3.838377 C.3        1 UNL1     -0.0615
     26 C         7.124632   -1.479926   -5.586799 C.3        1 UNL1     -0.0615
     27 C         0.199037   -9.501494   -0.487234 C.ar        1 UNL1     0.1347
     28 C         -0.593199   -9.202004   0.606713 C.ar        1 UNL1     0.0342
     29 C         -0.921885   -7.835668   0.734202 C.ar        1 UNL1     0.1435
     30 C         -0.447429   -6.858368   -0.141582 C.ar        1 UNL1     0.0774
     31 O         -1.594184   -7.369892   1.809411 O.3        1 UNL1     -0.4436
     32 C         -1.324251   -5.959991   1.823083 C.3        1 UNL1     0.3143
     33 C         -0.956263   -5.613233   0.394602 C.2        1 UNL1     0.2504
     34 C         -0.967265   -10.15133   1.710776 C.3        1 UNL1     -0.0327
     35 O         -2.559471   -5.29255   2.109452 O.2        1 UNL1     -0.4528
     36 C         -1.618626   -2.100885   3.935971 C.3        1 UNL1     0.0854
     37 C         -0.671758   -0.928637   3.470353 C.3        1 UNL1     0.0236
     38 C         -1.338902   0.529458   3.495275 C.3        1 UNL1     0.1131
     39 C         -2.736715   0.765416   2.79334 C.3        1 UNL1     0.0200
     40 C         -3.048302   0.112456   1.290345 C.3        1 UNL1     0.0661
     41 C         -2.045522   0.232744   -0.072583 C.3        1 UNL1     0.0091
     42 C         -1.772447   -0.940317   -1.456332 C.3        1 UNL1     0.0661
     43 C         1.661413   -8.896182   -2.427003 C.2        1 UNL1     0.2131
     44 O         2.296345   -9.935101   -2.442608 O.2        1 UNL1     -0.2851
     45 O         0.50859   -10.832768   -0.758016 O.3        1 UNL1     -0.5056
     46 O         -1.076773   -4.553602   -0.17856 O.2        1 UNL1     -0.2836
     47 C         -3.707941   -2.091259   -2.887069 C.3        1 UNL1     -0.0566
     48 O         -1.913627   0.092958   -2.510622 O.3        1 UNL1     -0.3909
     49 C         -0.683484   0.723134   0.365439 C.3        1 UNL1     -0.0577
     50 O         -3.54541   -1.205258   1.409667 O.3        1 UNL1     -0.3910
     51 O         -2.969073   -1.755323   4.146474 O.3        1 UNL1     -0.3753
     52 C         0.295391   -1.380801   2.327934 C.3        1 UNL1     -0.0564
     53 O         -0.342901   1.647439   3.393168 O.3        1 UNL1     -0.4608
     54 C         -0.650045   2.976067   3.257734 C.2        1 UNL1     0.3042
     55 O         -1.449197   3.629867   3.926868 O.2        1 UNL1     -0.2512
     56 C         0.149718   3.672805   2.193945 C.3        1 UNL1     0.0332
     57 C         -3.868823   0.628195   3.914802 C.3        1 UNL1     -0.0567
     58 C         -0.080807   -5.761384   2.720819 C.3        1 UNL1     0.0210
     59 C         -3.172986   -0.494964   4.783483 C.3        1 UNL1     0.0372
     60 C         -1.614803   -3.300145   3.05454 C.2        1 UNL1     -0.0208
     61 C         -2.62608   -4.037605   2.593872 C.2        1 UNL1     0.0882
     62 H         -2.245396   -3.03673   -1.641531 H        1 UNL1     0.0365
     63 H         -1.70234   -4.654358   -2.763404 H        1 UNL1     0.0576
     64 H         -1.032989   -3.828397   -5.6559 H        1 UNL1     0.0615
     65 H         -0.865585   -6.547747   -4.127838 H        1 UNL1     0.0622
     66 H         -1.197434   -2.431156   4.895953 H        1 UNL1     0.0645
     67 H         0.07027   -0.844407   4.283286 H        1 UNL1     0.0362
     68 H         -1.53465   0.62376   4.574308 H        1 UNL1     0.0741
     69 H         -2.865793   1.825877   2.622549 H        1 UNL1     0.0359
     70 H         -3.929784   0.715349   0.999538 H        1 UNL1     0.0600
     71 H         -2.464394   1.145023   -0.540827 H        1 UNL1     0.0348
     72 H         -2.725974   -1.233739   -0.993724 H        1 UNL1     0.0602
     73 H         -0.613461   -3.618665   2.902526 H        1 UNL1     0.0628
     74 H         -3.67658   -3.751805   2.657169 H        1 UNL1     0.1022
     75 H         0.087924   -6.683571   -8.114362 H        1 UNL1     0.0279
     76 H         1.60123   -6.13711   -7.510554 H        1 UNL1     0.0279
     77 H         1.175584   -7.894928   -7.575343 H        1 UNL1     0.0279
     78 H         2.541736   -7.405001   -5.217803 H        1 UNL1     0.1553
     79 H         2.415768   -5.479563   -4.7672 H        1 UNL1     0.1484
     80 H         3.172054   -3.192566   -1.828294 H        1 UNL1     0.0317
     81 H         3.496363   -4.919914   -1.796424 H        1 UNL1     0.0317
     82 H         4.284481   -4.874857   -4.177715 H        1 UNL1     0.0428
     83 H         5.178918   -3.778446   -3.14836 H        1 UNL1     0.0428
     84 H         2.123901   -2.060285   -5.560399 H        1 UNL1     0.0428
     85 H         2.369142   -3.763393   -5.728929 H        1 UNL1     0.0428
     86 H         0.476379   -3.031699   -4.277404 H        1 UNL1     0.0317
     87 H         1.496045   -2.193998   -3.19996 H        1 UNL1     0.0317
     88 H         5.02997   -3.265189   -6.033338 H        1 UNL1     0.0429
     89 H         4.470499   -1.591265   -5.998608 H        1 UNL1     0.0429
     90 H         5.885011   -1.24173   -3.9059 H        1 UNL1     0.0308
     91 H         6.347962   -4.195188   -4.28178 H        1 UNL1     0.0233
     92 H         7.759444   -3.213069   -3.814171 H        1 UNL1     0.0233
     93 H         6.338873   -3.258693   -2.792163 H        1 UNL1     0.0233
     94 H         7.024333   -1.961489   -6.565509 H        1 UNL1     0.0233
     95 H         6.95755   -0.407416   -5.720095 H        1 UNL1     0.0233
     96 H         8.145752   -1.636165   -5.227811 H        1 UNL1     0.0233
     97 H         -0.107928   -10.439709   2.308779 H        1 UNL1     0.0280
     98 H         -1.686196   -9.707862   2.412011 H        1 UNL1     0.0280
     99 H         -1.409549   -11.063927   1.278748 H        1 UNL1     0.0280
     100 H         0.166389   -11.448953   -0.134448 H        1 UNL1     0.2922
     101 H         -4.11974   -1.399102   -2.152905 H        1 UNL1     0.0236
     102 H         -4.321742   -2.984763   -2.996075 H        1 UNL1     0.0236
     103 H         -3.803299   -1.565413   -3.851738 H        1 UNL1     0.0236
     104 H         -1.085922   0.612178   -2.527464 H        1 UNL1     0.2098
     105 H         -0.399414   1.687905   -0.047276 H        1 UNL1     0.0234
     106 H         -0.519656   0.710143   1.442899 H        1 UNL1     0.0234
     107 H         0.0   0.0   0.0 H        1 UNL1     0.0234
     108 H         -3.311493   -1.679042   0.588339 H        1 UNL1     0.2098
     109 H         0.295981   -2.47115   2.190642 H        1 UNL1     0.0234
     110 H         0.088934   -0.891014   1.370214 H        1 UNL1     0.0234
     111 H         1.33632   -1.108285   2.547356 H        1 UNL1     0.0234
     112 H         0.805804   2.955373   1.691762 H        1 UNL1     0.0342
     113 H         -0.485739   4.189799   1.47648 H        1 UNL1     0.0342
     114 H         0.784337   4.42647   2.680169 H        1 UNL1     0.0342
     115 H         -3.46382   0.236928   4.858238 H        1 UNL1     0.0234
     116 H         -4.384639   1.563352   4.141663 H        1 UNL1     0.0234
     117 H         -4.632077   -0.133102   3.678557 H        1 UNL1     0.0234
     118 H         0.738866   -6.450562   2.45216 H        1 UNL1     0.0309
     119 H         0.297053   -4.7341   2.710267 H        1 UNL1     0.0309
     120 H         -0.278212   -6.001091   3.77138 H        1 UNL1     0.0309
     121 H         -4.242257   -0.38504   4.962182 H        1 UNL1     0.0524
     122 H         -2.665055   -0.432863   5.760308 H        1 UNL1     0.0524
     123 H         -2.8145   0.309771   4.147886 H        1 UNL1     0.0524
@<TRIPOS>BOND
     1     1     2    1
     2     1    42    1
     3     2     3    2
     4     3     4    1
     5     4     5    2
     6     5     7    1
     7     6    75    1
     8     6    76    1
     9     6    77    1
    10     7     9   am
    11     9    10    1
    12    10    11    2
    13    10    43    1
    14    11    14    1
    15    11    15    1
    16    12    13   ar
    17    12    27   ar
    18    12    43    1
    19    13    14    1
    20    13    30   ar
    21    14    17    2
    22    15    16    1
    23    16    17    1
    24    16    18    1
    25    16    22    1
    26    18    19    1
    27    19    20    1
    28    20    21    1
    29    21    22    1
    30    23    24    1
    31    23    88    1
    32    23    89    1
    33    24    25    1
    34    24    26    1
    35    24    90    1
    36    25    91    1
    37    25    92    1
    38    25    93    1
    39    26    94    1
    40    26    95    1
    41    26    96    1
    42    27    28   ar
    43    28    29   ar
    44    29    30   ar
    45    29    31    1
    46    30    33    1
    47    31    32    1
    48    32    33    1
    49    32    35    1
    50    34    97    1
    51    34    98    1
    52    34    99    1
    53    35    61    1
    54    36    37    1
    55    36    60    1
    56    37    38    1
    57    38    39    1
    58    39    40    1
    59    40    41    1
    60    41    42    1
    61    45   100    1
    62    47   101    1
    63    47   102    1
    64    47   103    1
    65    48   104    1
    66    49   105    1
    67    49   106    1
    68    49   107    1
    69    50   108    1
    70    51    59    1
    71    52   109    1
    72    52   110    1
    73    52   111    1
    74    53    54    1
    75    54    55    2
    76    54    56    1
    77    56   112    1
    78    56   113    1
    79    56   114    1
    80    57   115    1
    81    57   116    1
    82    57   117    1
    83    58   118    1
    84    58   119    1
    85    58   120    1
    86    59   121    1
    87    59   122    1
    88    59   123    1
    89    60    61    2
    90     1    47    1
    91     1    62    1
    92     2    63    1
    93     3    64    1
    94     4    65    1
    95     5     6    1
    96     7     8    2
    97     9    78    1
    98    15    79    1
    99    18    80    1
   100    18    81    1
   101    19    82    1
   102    19    83    1
   103    20    23    1
   104    21    84    1
   105    21    85    1
   106    22    86    1
   107    22    87    1
   108    27    45    1
   109    28    34    1
   110    32    58    1
   111    33    46    2
   112    36    51    1
   113    36    66    1
   114    37    52    1
   115    37    67    1
   116    38    53    1
   117    38    68    1
   118    42    48    1
   119    42    72    1
   120    43    44    2
   121    60    73    1
   122    61    74    1
   123    39    69    1
   124    39    57    1
   125    40    70    1
   126    40    50    1
   127    41    71    1
   128    41    49    1
