@<TRIPOS>MOLECULE
*****
 123 128 0 0 0
SMALL
GASTEIGER

@<TRIPOS>ATOM
     1 C         3.010289   -1.646241   2.291849 C.3        1 UNL1     0.0009
     2 C         3.011045   -1.946382   4.121317 C.2        1 UNL1     -0.0787
     3 C         3.34762   -1.521374   5.463752 C.2        1 UNL1     -0.0649
     4 C         2.933658   -2.267559   6.92601 C.2        1 UNL1     -0.0542
     5 C         2.78517   -2.082446   8.322707 C.2        1 UNL1     0.0115
     6 C         3.057384   -1.101636   9.496263 C.3        1 UNL1     -0.0348
     7 C         1.918857   -3.143879   9.159277 C.2        1 UNL1     0.2441
     8 O         2.423966   -4.018909   9.848997 O.2        1 UNL1     -0.2702
     9 N         0.549512   -2.84099   9.255739 N.am        1 UNL1     -0.2772
     10 C         -0.135856   -3.370261   8.18641 C.2        1 UNL1     0.1049
     11 C         -0.123063   -2.655885   7.075678 C.2        1 UNL1     0.0801
     12 C         -0.442515   -5.477238   6.87342 C.ar        1 UNL1     0.0753
     13 C         -0.213247   -4.68777   5.701761 C.ar        1 UNL1     0.0305
     14 C         -0.176782   -3.228115   5.757709 C.2        1 UNL1     0.0924
     15 N         0.274598   -1.388889   6.868037 N.pl3        1 UNL1     -0.3170
     16 C         -0.078263   -1.033043   5.519291 C.3        1 UNL1     0.1275
     17 N         -0.076114   -2.343114   4.770002 N.2        1 UNL1     -0.2557
     18 C         -1.528617   -0.560077   5.541154 C.3        1 UNL1     0.0016
     19 C         -1.65459   0.576074   6.543591 C.3        1 UNL1     0.0026
     20 N         -0.75832   1.652728   6.145415 N.3        1 UNL1     -0.3018
     21 C         0.653147   1.278316   6.036129 C.3        1 UNL1     0.0026
     22 C         0.756938   0.138918   5.020799 C.3        1 UNL1     0.0016
     23 C         -1.015816   2.891416   6.852515 C.3        1 UNL1     0.0012
     24 C         -2.346899   3.507097   6.393264 C.3        1 UNL1     -0.0339
     25 C         -2.715018   3.053951   4.970871 C.3        1 UNL1     -0.0615
     26 C         -3.445357   3.174096   7.38789 C.3        1 UNL1     -0.0615
     27 C         -0.596236   -6.859318   6.793773 C.ar        1 UNL1     0.1347
     28 C         -0.580046   -7.556333   5.598801 C.ar        1 UNL1     0.0342
     29 C         -0.304167   -6.764705   4.463732 C.ar        1 UNL1     0.1435
     30 C         -0.112094   -5.384271   4.532501 C.ar        1 UNL1     0.0774
     31 O         -0.363407   -7.277732   3.215413 O.3        1 UNL1     -0.4436
     32 C         -0.501233   -6.133642   2.359297 C.3        1 UNL1     0.3143
     33 C         0.061767   -4.973378   3.154928 C.2        1 UNL1     0.2504
     34 C         -0.985389   -8.991616   5.4097 C.3        1 UNL1     -0.0327
     35 O         0.369515   -6.332681   1.238836 O.2        1 UNL1     -0.4528
     36 C         -1.262539   -4.53605   -1.679486 C.3        1 UNL1     0.0854
     37 C         -1.680363   -3.020722   -1.808813 C.3        1 UNL1     0.0236
     38 C         -1.065337   -2.255941   -3.077118 C.3        1 UNL1     0.1131
     39 C         0.489747   -2.326363   -3.358232 C.3        1 UNL1     0.0200
     40 C         1.582592   -2.156454   -2.109529 C.3        1 UNL1     0.0661
     41 C         1.580541   -0.919505   -0.948684 C.3        1 UNL1     0.0091
     42 C         2.098939   -0.938039   0.810953 C.3        1 UNL1     0.0661
     43 C         -0.600432   -4.765289   8.165879 C.2        1 UNL1     0.2131
     44 O         -1.168732   -5.241722   9.131686 O.2        1 UNL1     -0.2851
     45 O         -0.77038   -7.558801   7.98618 O.3        1 UNL1     -0.5056
     46 O         0.561652   -3.950072   2.744058 O.2        1 UNL1     -0.2836
     47 C         4.42914   -1.879238   1.706566 C.3        1 UNL1     -0.0566
     48 O         2.896242   0.308046   0.707522 O.3        1 UNL1     -0.3909
     49 C         0.254614   -0.194521   -1.010422 C.3        1 UNL1     -0.0577
     50 O         1.831508   -3.401479   -1.4885 O.3        1 UNL1     -0.3910
     51 O         -0.27436   -4.981697   -2.580781 O.3        1 UNL1     -0.3753
     52 C         -1.818841   -2.334021   -0.410881 C.3        1 UNL1     -0.0564
     53 O         -1.739562   -0.948685   -3.375158 O.3        1 UNL1     -0.4608
     54 C         -1.275772   0.005616   -4.242417 C.2        1 UNL1     0.3042
     55 O         -0.709189   1.060356   -3.958965 O.2        1 UNL1     -0.2512
     56 C         -1.457777   -0.356846   -5.688864 C.3        1 UNL1     0.0332
     57 C         0.736858   -3.50611   -4.409569 C.3        1 UNL1     -0.0567
     58 C         -2.019469   -5.91421   2.163491 C.3        1 UNL1     0.0210
     59 C         -0.108332   -4.165979   -3.739618 C.3        1 UNL1     0.0372
     60 C         -0.823242   -4.953413   -0.32008 C.2        1 UNL1     -0.0208
     61 C         0.217391   -5.694676   0.062487 C.2        1 UNL1     0.0882
     62 H         2.458422   -2.584384   2.157521 H        1 UNL1     0.0365
     63 H         2.577406   -2.947703   4.16353 H        1 UNL1     0.0576
     64 H         3.786321   -0.540607   5.660589 H        1 UNL1     0.0615
     65 H         2.584435   -3.258444   6.623235 H        1 UNL1     0.0622
     66 H         -2.1866   -5.095457   -1.882519 H        1 UNL1     0.0645
     67 H         -2.751211   -3.059591   -2.07402 H        1 UNL1     0.0362
     68 H         -1.534723   -2.835382   -3.886715 H        1 UNL1     0.0741
     69 H         0.760445   -1.516195   -4.022127 H        1 UNL1     0.0359
     70 H         2.502507   -1.947257   -2.688368 H        1 UNL1     0.0600
     71 H         2.25049   -0.189119   -1.443317 H        1 UNL1     0.0348
     72 H         2.578819   -1.810509   0.344234 H        1 UNL1     0.0602
     73 H         -1.562247   -4.670755   0.387892 H        1 UNL1     0.0628
     74 H         1.046103   -5.976459   -0.587953 H        1 UNL1     0.1022
     75 H         4.107189   -0.723128   9.455342 H        1 UNL1     0.0279
     76 H         2.476881   -0.181843   9.504383 H        1 UNL1     0.0279
     77 H         3.044129   -1.598405   10.477459 H        1 UNL1     0.0279
     78 H         0.420059   -1.831626   9.233295 H        1 UNL1     0.1553
     79 H         0.377594   -0.710384   7.600127 H        1 UNL1     0.1484
     80 H         -1.814876   -0.237981   4.532652 H        1 UNL1     0.0317
     81 H         -2.203309   -1.379318   5.811869 H        1 UNL1     0.0317
     82 H         -1.439092   0.24036   7.568661 H        1 UNL1     0.0428
     83 H         -2.696743   0.896959   6.544506 H        1 UNL1     0.0428
     84 H         1.29239   2.082672   5.659046 H        1 UNL1     0.0428
     85 H         1.086914   1.029208   7.014448 H        1 UNL1     0.0428
     86 H         1.808633   -0.017689   4.867827 H        1 UNL1     0.0317
     87 H         0.405501   0.4788   4.038929 H        1 UNL1     0.0317
     88 H         -1.087095   2.664405   7.92428 H        1 UNL1     0.0429
     89 H         -0.187626   3.600982   6.728448 H        1 UNL1     0.0429
     90 H         -2.258302   4.599948   6.399626 H        1 UNL1     0.0308
     91 H         -3.722119   2.627654   4.937393 H        1 UNL1     0.0233
     92 H         -2.656542   3.8912   4.271439 H        1 UNL1     0.0233
     93 H         -2.031841   2.286607   4.587089 H        1 UNL1     0.0233
     94 H         -3.926275   4.092692   7.741067 H        1 UNL1     0.0233
     95 H         -4.20961   2.556626   6.907671 H        1 UNL1     0.0233
     96 H         -3.049805   2.636126   8.25397 H        1 UNL1     0.0233
     97 H         -1.445324   -9.406047   6.301853 H        1 UNL1     0.0280
     98 H         -1.725194   -9.11043   4.607311 H        1 UNL1     0.0280
     99 H         -0.096997   -9.596937   5.165893 H        1 UNL1     0.0280
     100 H         -0.146133   -7.348432   8.658255 H        1 UNL1     0.2922
     101 H         4.4567   -2.831458   1.177252 H        1 UNL1     0.0236
     102 H         5.218678   -1.8035   2.453478 H        1 UNL1     0.0236
     103 H         4.691014   -1.127249   0.943593 H        1 UNL1     0.0236
     104 H         3.803752   0.056716   0.446316 H        1 UNL1     0.2098
     105 H         0.287201   0.757365   -1.534504 H        1 UNL1     0.0234
     106 H         -0.577558   -0.797435   -1.373618 H        1 UNL1     0.0234
     107 H         -0.0   0.0   0.0 H        1 UNL1     0.0234
     108 H         1.716522   -4.09298   -2.16848 H        1 UNL1     0.2098
     109 H         -0.847724   -2.204537   0.086993 H        1 UNL1     0.0234
     110 H         -2.339775   -1.371462   -0.453907 H        1 UNL1     0.0234
     111 H         -2.427675   -2.935689   0.27706 H        1 UNL1     0.0234
     112 H         -1.049357   0.434266   -6.325009 H        1 UNL1     0.0342
     113 H         -1.01138   -1.320684   -5.928844 H        1 UNL1     0.0342
     114 H         -2.535212   -0.429332   -5.891458 H        1 UNL1     0.0342
     115 H         1.497167   -4.21594   -4.055648 H        1 UNL1     0.0234
     116 H         -0.159989   -4.079512   -4.652311 H        1 UNL1     0.0234
     117 H         1.189018   -3.164039   -5.356395 H        1 UNL1     0.0234
     118 H         -2.423265   -5.161715   2.863281 H        1 UNL1     0.0309
     119 H         -2.284001   -5.629904   1.140067 H        1 UNL1     0.0309
     120 H         -2.606502   -6.81086   2.390465 H        1 UNL1     0.0309
     121 H         0.292161   -4.797142   -4.532459 H        1 UNL1     0.0524
     122 H         -1.064157   -3.748983   -4.098155 H        1 UNL1     0.0524
     123 H         0.575971   -3.348937   -3.529222 H        1 UNL1     0.0524
@<TRIPOS>BOND
     1     1     2    1
     2     1    42    1
     3     2     3    2
     4     3     4    1
     5     4     5    2
     6     5     7    1
     7     6    75    1
     8     6    76    1
     9     6    77    1
    10     7     9   am
    11     9    10    1
    12    10    11    2
    13    10    43    1
    14    11    14    1
    15    11    15    1
    16    12    13   ar
    17    12    27   ar
    18    12    43    1
    19    13    14    1
    20    13    30   ar
    21    14    17    2
    22    15    16    1
    23    16    17    1
    24    16    18    1
    25    16    22    1
    26    18    19    1
    27    19    20    1
    28    20    21    1
    29    21    22    1
    30    23    24    1
    31    23    88    1
    32    23    89    1
    33    24    25    1
    34    24    26    1
    35    24    90    1
    36    25    91    1
    37    25    92    1
    38    25    93    1
    39    26    94    1
    40    26    95    1
    41    26    96    1
    42    27    28   ar
    43    28    29   ar
    44    29    30   ar
    45    29    31    1
    46    30    33    1
    47    31    32    1
    48    32    33    1
    49    32    35    1
    50    34    97    1
    51    34    98    1
    52    34    99    1
    53    35    61    1
    54    36    37    1
    55    36    60    1
    56    37    38    1
    57    38    39    1
    58    39    40    1
    59    40    41    1
    60    41    42    1
    61    45   100    1
    62    47   101    1
    63    47   102    1
    64    47   103    1
    65    48   104    1
    66    49   105    1
    67    49   106    1
    68    49   107    1
    69    50   108    1
    70    51    59    1
    71    52   109    1
    72    52   110    1
    73    52   111    1
    74    53    54    1
    75    54    55    2
    76    54    56    1
    77    56   112    1
    78    56   113    1
    79    56   114    1
    80    57   115    1
    81    57   116    1
    82    57   117    1
    83    58   118    1
    84    58   119    1
    85    58   120    1
    86    59   121    1
    87    59   122    1
    88    59   123    1
    89    60    61    2
    90     1    47    1
    91     1    62    1
    92     2    63    1
    93     3    64    1
    94     4    65    1
    95     5     6    1
    96     7     8    2
    97     9    78    1
    98    15    79    1
    99    18    80    1
   100    18    81    1
   101    19    82    1
   102    19    83    1
   103    20    23    1
   104    21    84    1
   105    21    85    1
   106    22    86    1
   107    22    87    1
   108    27    45    1
   109    28    34    1
   110    32    58    1
   111    33    46    2
   112    36    51    1
   113    36    66    1
   114    37    52    1
   115    37    67    1
   116    38    53    1
   117    38    68    1
   118    42    48    1
   119    42    72    1
   120    43    44    2
   121    60    73    1
   122    61    74    1
   123    39    69    1
   124    39    57    1
   125    40    70    1
   126    40    50    1
   127    41    71    1
   128    41    49    1
