@<TRIPOS>MOLECULE
*****
 123 128 0 0 0
SMALL
GASTEIGER

@<TRIPOS>ATOM
     1 C         5.166939   1.749756   0.490273 C.3        1 UNL1     0.0009
     2 C         6.603208   2.556404   -0.360307 C.2        1 UNL1     -0.0787
     3 C         7.884914   2.458673   -1.026434 C.2        1 UNL1     -0.0649
     4 C         8.76188   3.694191   -1.781936 C.2        1 UNL1     -0.0542
     5 C         9.78157   3.987311   -2.720759 C.2        1 UNL1     0.0115
     6 C         10.90965   3.362345   -3.586886 C.3        1 UNL1     -0.0348
     7 C         9.876418   5.470754   -3.326885 C.2        1 UNL1     0.2441
     8 O         10.700236   6.292473   -2.949226 O.2        1 UNL1     -0.2702
     9 N         9.125812   5.677883   -4.497287 N.am        1 UNL1     -0.2772
     10 C         7.843106   6.064205   -4.183054 C.2        1 UNL1     0.1049
     11 C         6.997611   5.092532   -3.89114 C.2        1 UNL1     0.0801
     12 C         6.544782   7.670193   -2.771498 C.ar        1 UNL1     0.0753
     13 C         5.786094   6.541994   -2.324097 C.ar        1 UNL1     0.0305
     14 C         5.903115   5.236495   -2.969875 C.2        1 UNL1     0.0924
     15 N         7.120468   3.763624   -4.050629 N.pl3        1 UNL1     -0.3170
     16 C         5.850827   3.164098   -3.736248 C.3        1 UNL1     0.1275
     17 N         5.214509   4.118929   -2.75588 N.2        1 UNL1     -0.2557
     18 C         4.997599   3.223333   -4.999654 C.3        1 UNL1     0.0016
     19 C         5.752297   2.53971   -6.128671 C.3        1 UNL1     0.0026
     20 N         6.022844   1.16156   -5.743268 N.3        1 UNL1     -0.3018
     21 C         6.786595   1.000989   -4.504208 C.3        1 UNL1     0.0026
     22 C         6.008029   1.691037   -3.382796 C.3        1 UNL1     0.0016
     23 C         6.467202   0.34242   -6.853313 C.3        1 UNL1     0.0012
     24 C         5.311524   0.092967   -7.835116 C.3        1 UNL1     -0.0339
     25 C         5.34668   1.085444   -9.008919 C.3        1 UNL1     -0.0615
     26 C         5.340791   -1.346392   -8.319026 C.3        1 UNL1     -0.0615
     27 C         6.34001   8.937696   -2.231477 C.ar        1 UNL1     0.1347
     28 C         5.381174   9.206779   -1.271123 C.ar        1 UNL1     0.0342
     29 C         4.679988   8.072055   -0.810795 C.ar        1 UNL1     0.1435
     30 C         4.899555   6.790212   -1.316649 C.ar        1 UNL1     0.0774
     31 O         3.639222   8.185169   0.043031 O.3        1 UNL1     -0.4436
     32 C         2.917764   6.952234   -0.099251 C.3        1 UNL1     0.3143
     33 C         3.931116   5.959488   -0.631967 C.2        1 UNL1     0.2504
     34 C         4.934175   10.572669   -0.829947 C.3        1 UNL1     -0.0327
     35 O         2.557609   6.515103   1.216977 O.2        1 UNL1     -0.4528
     36 C         -0.685144   4.582335   0.820685 C.3        1 UNL1     0.0854
     37 C         -0.990449   3.321926   -0.076913 C.3        1 UNL1     0.0236
     38 C         -1.590502   2.060545   0.710866 C.3        1 UNL1     0.1131
     39 C         -0.864244   1.529418   2.011913 C.3        1 UNL1     0.0200
     40 C         0.796991   1.384214   2.052547 C.3        1 UNL1     0.0661
     41 C         1.756174   0.615898   0.883245 C.3        1 UNL1     0.0091
     42 C         3.463516   0.978966   0.318826 C.3        1 UNL1     0.0661
     43 C         7.494533   7.462989   -3.892791 C.2        1 UNL1     0.2131
     44 O         7.894011   8.361342   -4.611204 O.2        1 UNL1     -0.2851
     45 O         7.15192   9.973097   -2.689936 O.3        1 UNL1     -0.5056
     46 O         3.947399   4.755923   -0.501511 O.2        1 UNL1     -0.2836
     47 C         5.563824   1.319986   1.928245 C.3        1 UNL1     -0.0566
     48 O         3.912402   -0.432065   0.400108 O.3        1 UNL1     -0.3909
     49 C         0.921663   0.383456   -0.356536 C.3        1 UNL1     -0.0577
     50 O         1.397051   2.6021   2.44549 O.3        1 UNL1     -0.3910
     51 O         -0.808774   4.392272   2.212095 O.3        1 UNL1     -0.3753
     52 C         0.053693   3.161975   -1.229793 C.3        1 UNL1     -0.0564
     53 O         -2.193158   1.021668   -0.18906 O.3        1 UNL1     -0.4608
     54 C         -2.42719   -0.285221   0.15035 C.2        1 UNL1     0.3042
     55 O         -1.858078   -1.284125   -0.28799 O.2        1 UNL1     -0.2512
     56 C         -3.466756   -0.451355   1.221992 C.3        1 UNL1     0.0332
     57 C         -1.585032   2.197933   3.27355 C.3        1 UNL1     -0.0567
     58 C         1.84219   7.197379   -1.183028 C.3        1 UNL1     0.0210
     59 C         -1.121994   5.571021   2.952575 C.3        1 UNL1     0.0372
     60 C         0.64365   5.211757   0.589828 C.2        1 UNL1     -0.0208
     61 C         1.556758   5.646958   1.459068 C.2        1 UNL1     0.0882
     62 H         4.690839   2.733807   0.577938 H        1 UNL1     0.0365
     63 H         6.336772   3.610121   -0.254651 H        1 UNL1     0.0576
     64 H         8.342703   1.491976   -1.247868 H        1 UNL1     0.0615
     65 H         8.274711   4.609397   -1.434735 H        1 UNL1     0.0622
     66 H         -1.430045   5.328787   0.51088 H        1 UNL1     0.0645
     67 H         -1.856248   3.631267   -0.687862 H        1 UNL1     0.0362
     68 H         -2.537556   2.497134   1.063005 H        1 UNL1     0.0741
     69 H         -1.195496   0.518201   2.207159 H        1 UNL1     0.0359
     70 H         0.909174   0.723683   2.933554 H        1 UNL1     0.0600
     71 H         1.800101   -0.405367   1.309914 H        1 UNL1     0.0348
     72 H         3.357833   1.466901   1.298656 H        1 UNL1     0.0602
     73 H         0.761185   5.409293   -0.446711 H        1 UNL1     0.0628
     74 H         1.539585   5.43602   2.528857 H        1 UNL1     0.1022
     75 H         10.954408   2.257037   -3.434161 H        1 UNL1     0.0279
     76 H         10.795668   3.445382   -4.665395 H        1 UNL1     0.0279
     77 H         11.914762   3.667176   -3.260499 H        1 UNL1     0.0279
     78 H         9.06383   4.808053   -5.022294 H        1 UNL1     0.1553
     79 H         7.785636   3.335926   -4.668333 H        1 UNL1     0.1484
     80 H         4.03648   2.73215   -4.805345 H        1 UNL1     0.0317
     81 H         4.770692   4.260107   -5.270327 H        1 UNL1     0.0317
     82 H         6.682773   3.071267   -6.376812 H        1 UNL1     0.0428
     83 H         5.126858   2.594947   -7.0202 H        1 UNL1     0.0428
     84 H         6.907228   -0.042015   -4.195337 H        1 UNL1     0.0428
     85 H         7.816579   1.369262   -4.608253 H        1 UNL1     0.0428
     86 H         6.524786   1.440554   -2.474937 H        1 UNL1     0.0317
     87 H         5.028723   1.213166   -3.257523 H        1 UNL1     0.0317
     88 H         7.26299   0.884514   -7.380714 H        1 UNL1     0.0429
     89 H         6.900102   -0.60335   -6.502756 H        1 UNL1     0.0429
     90 H         4.358631   0.211713   -7.305865 H        1 UNL1     0.0308
     91 H         6.299695   1.034997   -9.544008 H        1 UNL1     0.0233
     92 H         4.531614   0.885473   -9.70841 H        1 UNL1     0.0233
     93 H         5.220436   2.124446   -8.681241 H        1 UNL1     0.0233
     94 H         4.646071   -1.477796   -9.155646 H        1 UNL1     0.0233
     95 H         6.344242   -1.601997   -8.670756 H        1 UNL1     0.0233
     96 H         5.058251   -2.040869   -7.522884 H        1 UNL1     0.0233
     97 H         4.13478   10.522677   -0.096667 H        1 UNL1     0.0280
     98 H         5.744534   11.139281   -0.35295 H        1 UNL1     0.0280
     99 H         4.568917   11.140719   -1.701154 H        1 UNL1     0.0280
     100 H         6.684646   10.724213   -3.011031 H        1 UNL1     0.2922
     101 H         4.701258   0.886042   2.433546 H        1 UNL1     0.0236
     102 H         6.014616   2.125283   2.507266 H        1 UNL1     0.0236
     103 H         6.320241   0.517475   1.926713 H        1 UNL1     0.0236
     104 H         4.331918   -0.558273   1.273635 H        1 UNL1     0.2098
     105 H         0.70865   1.282382   -0.92957 H        1 UNL1     0.0234
     106 H         1.291013   -0.404329   -1.012969 H        1 UNL1     0.0234
     107 H         0.0   -0.0   0.0 H        1 UNL1     0.0234
     108 H         1.198746   3.260296   1.751788 H        1 UNL1     0.2098
     109 H         1.07867   3.048623   -0.849945 H        1 UNL1     0.0234
     110 H         -0.178787   2.334992   -1.909348 H        1 UNL1     0.0234
     111 H         0.074495   4.044952   -1.882377 H        1 UNL1     0.0234
     112 H         -3.59883   -1.513183   1.450952 H        1 UNL1     0.0342
     113 H         -3.223379   0.114623   2.119923 H        1 UNL1     0.0342
     114 H         -4.421627   -0.068769   0.835968 H        1 UNL1     0.0342
     115 H         -2.654591   1.949422   3.311928 H        1 UNL1     0.0234
     116 H         -1.148215   1.918033   4.234225 H        1 UNL1     0.0234
     117 H         -1.623878   3.299793   3.2252 H        1 UNL1     0.0234
     118 H         0.941142   7.683994   -0.770325 H        1 UNL1     0.0309
     119 H         2.211171   7.785645   -2.029195 H        1 UNL1     0.0309
     120 H         1.453683   6.26544   -1.608069 H        1 UNL1     0.0309
     121 H         -0.301137   6.274393   2.815402 H        1 UNL1     0.0524
     122 H         -2.042006   6.059955   2.591248 H        1 UNL1     0.0524
     123 H         -1.239586   5.333001   4.005957 H        1 UNL1     0.0524
@<TRIPOS>BOND
     1     1     2    1
     2     1    42    1
     3     2     3    2
     4     3     4    1
     5     4     5    2
     6     5     7    1
     7     6    75    1
     8     6    76    1
     9     6    77    1
    10     7     9   am
    11     9    10    1
    12    10    11    2
    13    10    43    1
    14    11    14    1
    15    11    15    1
    16    12    13   ar
    17    12    27   ar
    18    12    43    1
    19    13    14    1
    20    13    30   ar
    21    14    17    2
    22    15    16    1
    23    16    17    1
    24    16    18    1
    25    16    22    1
    26    18    19    1
    27    19    20    1
    28    20    21    1
    29    21    22    1
    30    23    24    1
    31    23    88    1
    32    23    89    1
    33    24    25    1
    34    24    26    1
    35    24    90    1
    36    25    91    1
    37    25    92    1
    38    25    93    1
    39    26    94    1
    40    26    95    1
    41    26    96    1
    42    27    28   ar
    43    28    29   ar
    44    29    30   ar
    45    29    31    1
    46    30    33    1
    47    31    32    1
    48    32    33    1
    49    32    35    1
    50    34    97    1
    51    34    98    1
    52    34    99    1
    53    35    61    1
    54    36    37    1
    55    36    60    1
    56    37    38    1
    57    38    39    1
    58    39    40    1
    59    40    41    1
    60    41    42    1
    61    45   100    1
    62    47   101    1
    63    47   102    1
    64    47   103    1
    65    48   104    1
    66    49   105    1
    67    49   106    1
    68    49   107    1
    69    50   108    1
    70    51    59    1
    71    52   109    1
    72    52   110    1
    73    52   111    1
    74    53    54    1
    75    54    55    2
    76    54    56    1
    77    56   112    1
    78    56   113    1
    79    56   114    1
    80    57   115    1
    81    57   116    1
    82    57   117    1
    83    58   118    1
    84    58   119    1
    85    58   120    1
    86    59   121    1
    87    59   122    1
    88    59   123    1
    89    60    61    2
    90     1    47    1
    91     1    62    1
    92     2    63    1
    93     3    64    1
    94     4    65    1
    95     5     6    1
    96     7     8    2
    97     9    78    1
    98    15    79    1
    99    18    80    1
   100    18    81    1
   101    19    82    1
   102    19    83    1
   103    20    23    1
   104    21    84    1
   105    21    85    1
   106    22    86    1
   107    22    87    1
   108    27    45    1
   109    28    34    1
   110    32    58    1
   111    33    46    2
   112    36    51    1
   113    36    66    1
   114    37    52    1
   115    37    67    1
   116    38    53    1
   117    38    68    1
   118    42    48    1
   119    42    72    1
   120    43    44    2
   121    60    73    1
   122    61    74    1
   123    39    69    1
   124    39    57    1
   125    40    70    1
   126    40    50    1
   127    41    71    1
   128    41    49    1
