@<TRIPOS>MOLECULE
*****
 123 128 0 0 0
SMALL
GASTEIGER

@<TRIPOS>ATOM
     1 C         4.356741   2.431368   1.400297 C.3        1 UNL1     0.0009
     2 C         6.145797   2.481844   0.916802 C.2        1 UNL1     -0.0787
     3 C         7.539238   2.247523   1.232178 C.2        1 UNL1     -0.0649
     4 C         8.878371   2.403277   0.208059 C.2        1 UNL1     -0.0542
     5 C         10.229436   2.031887   -0.001156 C.2        1 UNL1     0.0115
     6 C         11.461831   1.351576   0.655885 C.3        1 UNL1     -0.0348
     7 C         10.861679   2.194624   -1.467709 C.2        1 UNL1     0.2441
     8 O         11.605436   3.116614   -1.773135 O.2        1 UNL1     -0.2702
     9 N         10.715693   1.071182   -2.300005 N.am        1 UNL1     -0.2772
     10 C         9.523877   1.132605   -2.984932 C.2        1 UNL1     0.1049
     11 C         8.456054   0.707664   -2.334241 C.2        1 UNL1     0.0801
     12 C         8.114404   2.656721   -4.380565 C.ar        1 UNL1     0.0753
     13 C         7.028456   2.320709   -3.510841 C.ar        1 UNL1     0.0305
     14 C         7.133856   1.233834   -2.539941 C.2        1 UNL1     0.0924
     15 N         8.362542   0.025561   -1.179893 N.pl3        1 UNL1     -0.3170
     16 C         6.983338   -0.341168   -0.996696 C.3        1 UNL1     0.1275
     17 N         6.208085   0.724585   -1.732141 N.2        1 UNL1     -0.2557
     18 C         6.754358   -1.638482   -1.766271 C.3        1 UNL1     0.0016
     19 C         7.750585   -2.677103   -1.275977 C.3        1 UNL1     0.0026
     20 N         7.555098   -2.874476   0.153658 N.3        1 UNL1     -0.3018
     21 C         7.694022   -1.668428   0.972509 C.3        1 UNL1     0.0026
     22 C         6.68098   -0.640434   0.465688 C.3        1 UNL1     0.0016
     23 C         8.240156   -4.047094   0.659926 C.3        1 UNL1     0.0012
     24 C         7.293826   -5.257831   0.678115 C.3        1 UNL1     -0.0339
     25 C         7.594018   -6.188451   1.86466 C.3        1 UNL1     -0.0615
     26 C         5.849058   -4.789481   0.686607 C.3        1 UNL1     -0.0615
     27 C         7.966644   3.611399   -5.383996 C.ar        1 UNL1     0.1347
     28 C         6.774337   4.265292   -5.638706 C.ar        1 UNL1     0.0342
     29 C         5.732917   3.954218   -4.738793 C.ar        1 UNL1     0.1435
     30 C         5.876936   3.02662   -3.706301 C.ar        1 UNL1     0.0774
     31 O         4.479936   4.425255   -4.920915 O.3        1 UNL1     -0.4436
     32 C         3.647736   3.553015   -4.141483 C.3        1 UNL1     0.3143
     33 C         4.567164   2.961352   -3.092293 C.2        1 UNL1     0.2504
     34 C         6.471502   5.108267   -6.846094 C.3        1 UNL1     -0.0327
     35 O         2.699517   4.374872   -3.449614 O.2        1 UNL1     -0.4528
     36 C         -0.412411   2.24292   -3.026805 C.3        1 UNL1     0.0854
     37 C         -0.570316   0.838309   -2.32705 C.3        1 UNL1     0.0236
     38 C         -1.681594   0.779606   -1.172338 C.3        1 UNL1     0.1131
     39 C         -1.676215   1.864964   -0.021583 C.3        1 UNL1     0.0200
     40 C         -0.244541   2.321506   0.702516 C.3        1 UNL1     0.0661
     41 C         0.932996   1.271302   1.325484 C.3        1 UNL1     0.0091
     42 C         2.756323   1.449829   1.420401 C.3        1 UNL1     0.0661
     43 C         9.377104   1.890501   -4.236493 C.2        1 UNL1     0.2131
     44 O         10.208273   1.79041   -5.120732 O.2        1 UNL1     -0.2851
     45 O         9.08574   3.912897   -6.157405 O.3        1 UNL1     -0.5056
     46 O         4.285275   2.549472   -1.98923 O.2        1 UNL1     -0.2836
     47 C         4.033465   3.581243   2.391893 C.3        1 UNL1     -0.0566
     48 O         2.83752   1.031688   2.840852 O.3        1 UNL1     -0.3909
     49 C         0.652117   -0.128301   0.825774 C.3        1 UNL1     -0.0577
     50 O         0.37387   3.364712   -0.02344 O.3        1 UNL1     -0.3910
     51 O         -1.13121   3.306115   -2.443388 O.3        1 UNL1     -0.3753
     52 C         0.798828   0.093546   -2.201664 C.3        1 UNL1     -0.0564
     53 O         -2.058326   -0.616815   -0.771827 O.3        1 UNL1     -0.4608
     54 C         -2.345507   -1.028115   0.503433 C.2        1 UNL1     0.3042
     55 O         -3.392613   -1.532111   0.907653 O.2        1 UNL1     -0.2512
     56 C         -1.196548   -0.872467   1.45862 C.3        1 UNL1     0.0332
     57 C         -2.699701   3.019598   -0.442856 C.3        1 UNL1     -0.0567
     58 C         3.184853   2.424861   -5.092555 C.3        1 UNL1     0.0210
     59 C         -2.276005   3.731716   -3.18107 C.3        1 UNL1     0.0372
     60 C         0.991197   2.711037   -3.187776 C.2        1 UNL1     -0.0208
     61 C         1.534826   3.907543   -2.960651 C.2        1 UNL1     0.0882
     62 H         4.095904   2.798005   0.400171 H        1 UNL1     0.0365
     63 H         6.078135   2.9556   -0.064751 H        1 UNL1     0.0576
     64 H         7.842136   1.76944   2.166415 H        1 UNL1     0.0615
     65 H         8.487386   2.957098   -0.649785 H        1 UNL1     0.0622
     66 H         -0.797328   2.089003   -4.044741 H        1 UNL1     0.0645
     67 H         -1.027513   0.201502   -3.104229 H        1 UNL1     0.0362
     68 H         -2.580251   0.993403   -1.770861 H        1 UNL1     0.0741
     69 H         -2.254976   1.490861   0.812377 H        1 UNL1     0.0359
     70 H         -0.639267   2.813611   1.611957 H        1 UNL1     0.0600
     71 H         0.591037   1.199176   2.376587 H        1 UNL1     0.0348
     72 H         2.359059   2.46561   1.280098 H        1 UNL1     0.0602
     73 H         1.560587   1.950962   -3.662464 H        1 UNL1     0.0628
     74 H         1.038371   4.719345   -2.427973 H        1 UNL1     0.1022
     75 H         11.878219   0.562312   -0.01547 H        1 UNL1     0.0279
     76 H         12.32693   1.985583   0.836738 H        1 UNL1     0.0279
     77 H         11.19783   0.761904   1.545992 H        1 UNL1     0.0279
     78 H         10.700278   0.225582   -1.733613 H        1 UNL1     0.1553
     79 H         9.121143   -0.492466   -0.77603 H        1 UNL1     0.1484
     80 H         5.720672   -1.969587   -1.609337 H        1 UNL1     0.0317
     81 H         6.87273   -1.48046   -2.843614 H        1 UNL1     0.0317
     82 H         8.787233   -2.383015   -1.496849 H        1 UNL1     0.0428
     83 H         7.570942   -3.593498   -1.839004 H        1 UNL1     0.0428
     84 H         7.464201   -1.827783   2.030621 H        1 UNL1     0.0428
     85 H         8.72715   -1.294342   0.977282 H        1 UNL1     0.0428
     86 H         6.717854   0.172492   1.166958 H        1 UNL1     0.0317
     87 H         5.662107   -1.029698   0.581734 H        1 UNL1     0.0317
     88 H         9.079142   -4.269347   -0.012384 H        1 UNL1     0.0429
     89 H         8.665503   -3.861981   1.654706 H        1 UNL1     0.0429
     90 H         7.419156   -5.825672   -0.251434 H        1 UNL1     0.0308
     91 H         7.719383   -5.622215   2.792433 H        1 UNL1     0.0233
     92 H         6.791792   -6.918441   1.995647 H        1 UNL1     0.0233
     93 H         8.513779   -6.767754   1.718776 H        1 UNL1     0.0233
     94 H         5.198896   -5.577429   1.081908 H        1 UNL1     0.0233
     95 H         5.744618   -3.91167   1.330426 H        1 UNL1     0.0233
     96 H         5.507166   -4.531842   -0.319723 H        1 UNL1     0.0233
     97 H         5.617896   4.732036   -7.402006 H        1 UNL1     0.0280
     98 H         6.222232   6.142887   -6.576498 H        1 UNL1     0.0280
     99 H         7.344998   5.117258   -7.518417 H        1 UNL1     0.0280
     100 H         9.866437   4.091887   -5.663345 H        1 UNL1     0.2922
     101 H         2.9535   3.694967   2.483534 H        1 UNL1     0.0236
     102 H         4.523144   4.519769   2.134278 H        1 UNL1     0.0236
     103 H         4.378885   3.355528   3.414601 H        1 UNL1     0.0236
     104 H         3.72117   1.284646   3.172733 H        1 UNL1     0.2098
     105 H         1.530408   -0.664957   0.475892 H        1 UNL1     0.0234
     106 H         0.077987   -0.750305   1.51237 H        1 UNL1     0.0234
     107 H         -0.0   0.0   0.0 H        1 UNL1     0.0234
     108 H         1.268022   3.487356   0.34968 H        1 UNL1     0.2098
     109 H         1.257137   -0.102156   -3.181136 H        1 UNL1     0.0234
     110 H         1.515865   0.616222   -1.559472 H        1 UNL1     0.0234
     111 H         0.682775   -0.889451   -1.726066 H        1 UNL1     0.0234
     112 H         -1.569911   -0.584855   2.446155 H        1 UNL1     0.0342
     113 H         -0.588448   -1.773864   1.518133 H        1 UNL1     0.0342
     114 H         -0.553314   -0.060589   1.092195 H        1 UNL1     0.0342
     115 H         -2.909248   3.703785   0.390911 H        1 UNL1     0.0234
     116 H         -2.363526   3.624419   -1.287384 H        1 UNL1     0.0234
     117 H         -3.712814   2.647107   -0.672624 H        1 UNL1     0.0234
     118 H         2.107091   2.492554   -5.322451 H        1 UNL1     0.0309
     119 H         3.749718   2.394191   -6.029673 H        1 UNL1     0.0309
     120 H         3.285641   1.430031   -4.645048 H        1 UNL1     0.0309
     121 H         -3.138384   3.19063   -2.792631 H        1 UNL1     0.0524
     122 H         -2.476703   4.808954   -3.057319 H        1 UNL1     0.0524
     123 H         -2.143489   3.516855   -4.237653 H        1 UNL1     0.0524
@<TRIPOS>BOND
     1     1     2    1
     2     1    42    1
     3     2     3    2
     4     3     4    1
     5     4     5    2
     6     5     7    1
     7     6    75    1
     8     6    76    1
     9     6    77    1
    10     7     9   am
    11     9    10    1
    12    10    11    2
    13    10    43    1
    14    11    14    1
    15    11    15    1
    16    12    13   ar
    17    12    27   ar
    18    12    43    1
    19    13    14    1
    20    13    30   ar
    21    14    17    2
    22    15    16    1
    23    16    17    1
    24    16    18    1
    25    16    22    1
    26    18    19    1
    27    19    20    1
    28    20    21    1
    29    21    22    1
    30    23    24    1
    31    23    88    1
    32    23    89    1
    33    24    25    1
    34    24    26    1
    35    24    90    1
    36    25    91    1
    37    25    92    1
    38    25    93    1
    39    26    94    1
    40    26    95    1
    41    26    96    1
    42    27    28   ar
    43    28    29   ar
    44    29    30   ar
    45    29    31    1
    46    30    33    1
    47    31    32    1
    48    32    33    1
    49    32    35    1
    50    34    97    1
    51    34    98    1
    52    34    99    1
    53    35    61    1
    54    36    37    1
    55    36    60    1
    56    37    38    1
    57    38    39    1
    58    39    40    1
    59    40    41    1
    60    41    42    1
    61    45   100    1
    62    47   101    1
    63    47   102    1
    64    47   103    1
    65    48   104    1
    66    49   105    1
    67    49   106    1
    68    49   107    1
    69    50   108    1
    70    51    59    1
    71    52   109    1
    72    52   110    1
    73    52   111    1
    74    53    54    1
    75    54    55    2
    76    54    56    1
    77    56   112    1
    78    56   113    1
    79    56   114    1
    80    57   115    1
    81    57   116    1
    82    57   117    1
    83    58   118    1
    84    58   119    1
    85    58   120    1
    86    59   121    1
    87    59   122    1
    88    59   123    1
    89    60    61    2
    90     1    47    1
    91     1    62    1
    92     2    63    1
    93     3    64    1
    94     4    65    1
    95     5     6    1
    96     7     8    2
    97     9    78    1
    98    15    79    1
    99    18    80    1
   100    18    81    1
   101    19    82    1
   102    19    83    1
   103    20    23    1
   104    21    84    1
   105    21    85    1
   106    22    86    1
   107    22    87    1
   108    27    45    1
   109    28    34    1
   110    32    58    1
   111    33    46    2
   112    36    51    1
   113    36    66    1
   114    37    52    1
   115    37    67    1
   116    38    53    1
   117    38    68    1
   118    42    48    1
   119    42    72    1
   120    43    44    2
   121    60    73    1
   122    61    74    1
   123    39    69    1
   124    39    57    1
   125    40    70    1
   126    40    50    1
   127    41    71    1
   128    41    49    1
