@<TRIPOS>MOLECULE
*****
 123 128 0 0 0
SMALL
GASTEIGER

@<TRIPOS>ATOM
     1 C         5.164397   1.758016   0.487502 C.3        1 UNL1     0.0009
     2 C         6.601651   2.559584   -0.366211 C.2        1 UNL1     -0.0787
     3 C         7.884774   2.458037   -1.029031 C.2        1 UNL1     -0.0649
     4 C         8.762156   3.688669   -1.791986 C.2        1 UNL1     -0.0542
     5 C         9.783464   3.975691   -2.730935 C.2        1 UNL1     0.0115
     6 C         10.913828   3.345291   -3.59012 C.3        1 UNL1     -0.0348
     7 C         9.878212   5.454653   -3.347931 C.2        1 UNL1     0.2441
     8 O         10.700545   6.279909   -2.974774 O.2        1 UNL1     -0.2702
     9 N         9.129767   5.652363   -4.521341 N.am        1 UNL1     -0.2772
     10 C         7.846093   6.039866   -4.21256 C.2        1 UNL1     0.1049
     11 C         7.000877   5.069638   -3.915087 C.2        1 UNL1     0.0801
     12 C         6.543526   7.655177   -2.815628 C.ar        1 UNL1     0.0753
     13 C         5.784943   6.529667   -2.36133 C.ar        1 UNL1     0.0305
     14 C         5.904412   5.219489   -2.997108 C.2        1 UNL1     0.0924
     15 N         7.125228   3.739688   -4.064404 N.pl3        1 UNL1     -0.3170
     16 C         5.855491   3.141383   -3.748089 C.3        1 UNL1     0.1275
     17 N         5.216368   4.102933   -2.776149 N.2        1 UNL1     -0.2557
     18 C         5.004742   3.190418   -5.013602 C.3        1 UNL1     0.0016
     19 C         5.762303   2.499066   -6.135975 C.3        1 UNL1     0.0026
     20 N         6.033297   1.124075   -5.739754 N.3        1 UNL1     -0.3018
     21 C         6.794709   0.973445   -4.498009 C.3        1 UNL1     0.0026
     22 C         6.01329   1.671144   -3.383336 C.3        1 UNL1     0.0016
     23 C         6.480601   0.297072   -6.842763 C.3        1 UNL1     0.0012
     24 C         5.327112   0.039258   -7.824981 C.3        1 UNL1     -0.0339
     25 C         5.353558   1.03406   -8.997041 C.3        1 UNL1     -0.0615
     26 C         5.368931   -1.39894   -8.311414 C.3        1 UNL1     -0.0615
     27 C         6.336552   8.926491   -2.285495 C.ar        1 UNL1     0.1347
     28 C         5.375558   9.201873   -1.329092 C.ar        1 UNL1     0.0342
     29 C         4.674456   8.069986   -0.861704 C.ar        1 UNL1     0.1435
     30 C         4.89617   6.7846   -1.357534 C.ar        1 UNL1     0.0774
     31 O         3.631884   8.188533   -0.010824 O.3        1 UNL1     -0.4436
     32 C         2.911804   6.953922   -0.145336 C.3        1 UNL1     0.3143
     33 C         3.927098   5.958139   -0.668602 C.2        1 UNL1     0.2504
     34 C         4.926469   10.570615   -0.899019 C.3        1 UNL1     -0.0327
     35 O         2.549402   6.526305   1.173398 O.2        1 UNL1     -0.4528
     36 C         -0.69084   4.587715   0.78508 C.3        1 UNL1     0.0854
     37 C         -0.993232   3.320367   -0.103689 C.3        1 UNL1     0.0236
     38 C         -1.593745   2.064362   0.692287 C.3        1 UNL1     0.1131
     39 C         -0.869623   1.543615   1.99871 C.3        1 UNL1     0.0200
     40 C         0.791656   1.400213   2.043741 C.3        1 UNL1     0.0661
     41 C         1.753857   0.624054   0.882123 C.3        1 UNL1     0.0091
     42 C         3.462003   0.984435   0.318417 C.3        1 UNL1     0.0661
     43 C         7.495703   7.440464   -3.933446 C.2        1 UNL1     0.2131
     44 O         7.895823   8.333788   -4.657748 O.2        1 UNL1     -0.2851
     45 O         7.148462   9.959171   -2.750052 O.3        1 UNL1     -0.5056
     46 O         3.944185   4.755596   -0.529131 O.2        1 UNL1     -0.2836
     47 C         5.558783   1.339348   1.929431 C.3        1 UNL1     -0.0566
     48 O         3.911974   -0.425546   0.411127 O.3        1 UNL1     -0.3909
     49 C         0.922035   0.381613   -0.35755 C.3        1 UNL1     -0.0577
     50 O         1.38985   2.621539   2.428775 O.3        1 UNL1     -0.3910
     51 O         -0.817086   4.407933   2.177621 O.3        1 UNL1     -0.3753
     52 C         0.053356   3.152754   -1.253258 C.3        1 UNL1     -0.0564
     53 O         -2.193678   1.018254   -0.201058 O.3        1 UNL1     -0.4608
     54 C         -2.427233   -0.286275   0.147633 C.2        1 UNL1     0.3042
     55 O         -1.856552   -1.287931   -0.282306 O.2        1 UNL1     -0.2512
     56 C         -3.468513   -0.445316   1.218687 C.3        1 UNL1     0.0332
     57 C         -1.593525   2.220881   3.253879 C.3        1 UNL1     -0.0567
     58 C         1.838184   7.190002   -1.233057 C.3        1 UNL1     0.0210
     59 C         -1.163739   5.585467   2.905021 C.3        1 UNL1     0.0372
     60 C         0.637856   5.216592   0.552181 C.2        1 UNL1     -0.0208
     61 C         1.548837   5.659091   1.419968 C.2        1 UNL1     0.0882
     62 H         4.687252   2.742264   0.566867 H        1 UNL1     0.0365
     63 H         6.334072   3.61382   -0.268957 H        1 UNL1     0.0576
     64 H         8.34386   1.490126   -1.242328 H        1 UNL1     0.0615
     65 H         8.273484   4.606003   -1.452601 H        1 UNL1     0.0622
     66 H         -1.43578   5.331163   0.468225 H        1 UNL1     0.0645
     67 H         -1.85808   3.624359   -0.718657 H        1 UNL1     0.0362
     68 H         -2.541888   2.502715   1.039266 H        1 UNL1     0.0741
     69 H         -1.20037   0.533586   2.200839 H        1 UNL1     0.0359
     70 H         0.90266   0.746379   2.929877 H        1 UNL1     0.0600
     71 H         1.797833   -0.393957   1.316492 H        1 UNL1     0.0348
     72 H         3.353928   1.479575   1.294363 H        1 UNL1     0.0602
     73 H         0.757291   5.406491   -0.485567 H        1 UNL1     0.0628
     74 H         1.529709   5.456129   2.491265 H        1 UNL1     0.1022
     75 H         10.959258   2.241195   -3.429058 H        1 UNL1     0.0279
     76 H         10.801931   3.420173   -4.669444 H        1 UNL1     0.0279
     77 H         11.918015   3.653455   -3.264013 H        1 UNL1     0.0279
     78 H         9.069606   4.778583   -5.039961 H        1 UNL1     0.1553
     79 H         7.79201   3.30799   -4.67757 H        1 UNL1     0.1484
     80 H         4.04367   2.699835   -4.817549 H        1 UNL1     0.0317
     81 H         4.777459   4.224938   -5.29246 H        1 UNL1     0.0317
     82 H         6.692803   3.029593   -6.386221 H        1 UNL1     0.0428
     83 H         5.1386   2.547083   -7.029138 H        1 UNL1     0.0428
     84 H         6.915645   -0.067115   -4.181119 H        1 UNL1     0.0428
     85 H         7.824573   1.341857   -4.602745 H        1 UNL1     0.0428
     86 H         6.528449   1.42791   -2.472602 H        1 UNL1     0.0317
     87 H         5.034157   1.19334   -3.256452 H        1 UNL1     0.0317
     88 H         7.276962   0.835929   -7.372608 H        1 UNL1     0.0429
     89 H         6.913635   -0.645665   -6.484292 H        1 UNL1     0.0429
     90 H         4.373236   0.148748   -7.295504 H        1 UNL1     0.0308
     91 H         6.304623   0.98848   -9.536021 H        1 UNL1     0.0233
     92 H         4.536519   0.832092   -9.693652 H        1 UNL1     0.0233
     93 H         5.224417   2.071927   -8.666905 H        1 UNL1     0.0233
     94 H         4.674208   -1.535316   -9.147236 H        1 UNL1     0.0233
     95 H         6.374172   -1.644676   -8.665062 H        1 UNL1     0.0233
     96 H         5.093993   -2.097356   -7.516057 H        1 UNL1     0.0233
     97 H         4.131934   10.5253   -0.160174 H        1 UNL1     0.0280
     98 H         5.737802   11.144926   -0.433013 H        1 UNL1     0.0280
     99 H         4.553644   11.12844   -1.773621 H        1 UNL1     0.0280
     100 H         6.681157   10.706916   -3.078877 H        1 UNL1     0.2922
     101 H         4.695592   0.908413   2.436236 H        1 UNL1     0.0236
     102 H         6.007702   2.149351   2.503322 H        1 UNL1     0.0236
     103 H         6.315911   0.537529   1.9354 H        1 UNL1     0.0236
     104 H         4.330169   -0.54476   1.286268 H        1 UNL1     0.2098
     105 H         0.709374   1.276045   -0.937703 H        1 UNL1     0.0234
     106 H         1.293395   -0.410717   -1.007344 H        1 UNL1     0.0234
     107 H         0.0   -0.0   0.0 H        1 UNL1     0.0234
     108 H         1.192352   3.274359   1.729784 H        1 UNL1     0.2098
     109 H         1.077671   3.043163   -0.87053 H        1 UNL1     0.0234
     110 H         -0.177031   2.320512   -1.927081 H        1 UNL1     0.0234
     111 H         0.074683   4.030853   -1.912374 H        1 UNL1     0.0234
     112 H         -3.600258   -1.505539   1.455151 H        1 UNL1     0.0342
     113 H         -3.227051   0.127354   2.112884 H        1 UNL1     0.0342
     114 H         -4.422983   -0.06621   0.828263 H        1 UNL1     0.0342
     115 H         -2.662939   1.971701   3.291978 H        1 UNL1     0.0234
     116 H         -1.158385   1.948552   4.217487 H        1 UNL1     0.0234
     117 H         -1.633249   3.322314   3.197227 H        1 UNL1     0.0234
     118 H         0.935882   7.678874   -0.825796 H        1 UNL1     0.0309
     119 H         2.208337   7.772267   -2.082855 H        1 UNL1     0.0309
     120 H         1.451354   6.254568   -1.651901 H        1 UNL1     0.0309
     121 H         -0.360073   6.307914   2.765213 H        1 UNL1     0.0524
     122 H         -2.093791   6.047629   2.534283 H        1 UNL1     0.0524
     123 H         -1.280942   5.35466   3.96005 H        1 UNL1     0.0524
@<TRIPOS>BOND
     1     1     2    1
     2     1    42    1
     3     2     3    2
     4     3     4    1
     5     4     5    2
     6     5     7    1
     7     6    75    1
     8     6    76    1
     9     6    77    1
    10     7     9   am
    11     9    10    1
    12    10    11    2
    13    10    43    1
    14    11    14    1
    15    11    15    1
    16    12    13   ar
    17    12    27   ar
    18    12    43    1
    19    13    14    1
    20    13    30   ar
    21    14    17    2
    22    15    16    1
    23    16    17    1
    24    16    18    1
    25    16    22    1
    26    18    19    1
    27    19    20    1
    28    20    21    1
    29    21    22    1
    30    23    24    1
    31    23    88    1
    32    23    89    1
    33    24    25    1
    34    24    26    1
    35    24    90    1
    36    25    91    1
    37    25    92    1
    38    25    93    1
    39    26    94    1
    40    26    95    1
    41    26    96    1
    42    27    28   ar
    43    28    29   ar
    44    29    30   ar
    45    29    31    1
    46    30    33    1
    47    31    32    1
    48    32    33    1
    49    32    35    1
    50    34    97    1
    51    34    98    1
    52    34    99    1
    53    35    61    1
    54    36    37    1
    55    36    60    1
    56    37    38    1
    57    38    39    1
    58    39    40    1
    59    40    41    1
    60    41    42    1
    61    45   100    1
    62    47   101    1
    63    47   102    1
    64    47   103    1
    65    48   104    1
    66    49   105    1
    67    49   106    1
    68    49   107    1
    69    50   108    1
    70    51    59    1
    71    52   109    1
    72    52   110    1
    73    52   111    1
    74    53    54    1
    75    54    55    2
    76    54    56    1
    77    56   112    1
    78    56   113    1
    79    56   114    1
    80    57   115    1
    81    57   116    1
    82    57   117    1
    83    58   118    1
    84    58   119    1
    85    58   120    1
    86    59   121    1
    87    59   122    1
    88    59   123    1
    89    60    61    2
    90     1    47    1
    91     1    62    1
    92     2    63    1
    93     3    64    1
    94     4    65    1
    95     5     6    1
    96     7     8    2
    97     9    78    1
    98    15    79    1
    99    18    80    1
   100    18    81    1
   101    19    82    1
   102    19    83    1
   103    20    23    1
   104    21    84    1
   105    21    85    1
   106    22    86    1
   107    22    87    1
   108    27    45    1
   109    28    34    1
   110    32    58    1
   111    33    46    2
   112    36    51    1
   113    36    66    1
   114    37    52    1
   115    37    67    1
   116    38    53    1
   117    38    68    1
   118    42    48    1
   119    42    72    1
   120    43    44    2
   121    60    73    1
   122    61    74    1
   123    39    69    1
   124    39    57    1
   125    40    70    1
   126    40    50    1
   127    41    71    1
   128    41    49    1
