@<TRIPOS>MOLECULE
*****
 123 128 0 0 0
SMALL
GASTEIGER

@<TRIPOS>ATOM
     1 C         -3.74241   0.11997   -3.031717 C.3        1 UNL1     0.0009
     2 C         -4.78185   -1.190889   -3.830622 C.2        1 UNL1     -0.0787
     3 C         -5.242652   -1.877731   -5.018879 C.2        1 UNL1     -0.0649
     4 C         -6.233263   -3.247625   -5.110734 C.2        1 UNL1     -0.0542
     5 C         -6.646615   -4.328858   -5.927529 C.2        1 UNL1     0.0115
     6 C         -6.591015   -4.908671   -7.367685 C.3        1 UNL1     -0.0348
     7 C         -7.357488   -5.593781   -5.240784 C.2        1 UNL1     0.2441
     8 O         -8.56646   -5.777456   -5.27509 O.2        1 UNL1     -0.2702
     9 N         -6.478775   -6.608911   -4.824221 N.am        1 UNL1     -0.2772
     10 C         -6.038533   -6.367136   -3.543185 C.2        1 UNL1     0.1049
     11 C         -5.023643   -5.530365   -3.424716 C.2        1 UNL1     0.0801
     12 C         -6.840703   -5.779803   -1.247777 C.ar        1 UNL1     0.0753
     13 C         -5.854023   -4.742961   -1.253356 C.ar        1 UNL1     0.0305
     14 C         -4.826353   -4.670245   -2.289531 C.2        1 UNL1     0.0924
     15 N         -4.203939   -5.028185   -4.364092 N.pl3        1 UNL1     -0.3170
     16 C         -3.158871   -4.302039   -3.692677 C.3        1 UNL1     0.1275
     17 N         -3.786181   -3.848422   -2.397132 N.2        1 UNL1     -0.2557
     18 C         -2.080555   -5.311416   -3.310453 C.3        1 UNL1     0.0016
     19 C         -1.630931   -6.041596   -4.565947 C.3        1 UNL1     0.0026
     20 N         -1.12039   -5.064643   -5.517755 N.3        1 UNL1     -0.3018
     21 C         -2.067379   -4.015006   -5.899648 C.3        1 UNL1     0.0026
     22 C         -2.502283   -3.291532   -4.623976 C.3        1 UNL1     0.0016
     23 C         -0.39614   -5.672589   -6.616166 C.3        1 UNL1     0.0012
     24 C         -1.360961   -6.063483   -7.746687 C.3        1 UNL1     -0.0339
     25 C         -1.41236   -4.984123   -8.840487 C.3        1 UNL1     -0.0615
     26 C         -0.975197   -7.417872   -8.315543 C.3        1 UNL1     -0.0615
     27 C         -7.740925   -5.913784   -0.193373 C.ar        1 UNL1     0.1347
     28 C         -7.725984   -5.098774   0.924476 C.ar        1 UNL1     0.0342
     29 C         -6.777908   -4.054833   0.87445 C.ar        1 UNL1     0.1435
     30 C         -5.893617   -3.886234   -0.191771 C.ar        1 UNL1     0.0774
     31 O         -6.565515   -3.24434   1.934165 O.3        1 UNL1     -0.4436
     32 C         -5.272231   -2.668247   1.696665 C.3        1 UNL1     0.3143
     33 C         -5.064338   -2.765292   0.198808 C.2        1 UNL1     0.2504
     34 C         -8.487723   -5.335819   2.198706 C.3        1 UNL1     -0.0327
     35 O         -5.361716   -1.274231   2.015984 O.2        1 UNL1     -0.4528
     36 C         -1.903194   -0.254166   3.20181 C.3        1 UNL1     0.0854
     37 C         -0.519655   -0.367251   2.453109 C.3        1 UNL1     0.0236
     38 C         0.295082   1.008283   2.327185 C.3        1 UNL1     0.1131
     39 C         -0.42526   2.298646   1.762967 C.3        1 UNL1     0.0200
     40 C         -1.41771   2.195845   0.426213 C.3        1 UNL1     0.0661
     41 C         -1.028308   1.446955   -1.045228 C.3        1 UNL1     0.0091
     42 C         -2.09426   0.566927   -2.251337 C.3        1 UNL1     0.0661
     43 C         -6.815906   -6.762724   -2.359312 C.2        1 UNL1     0.2131
     44 O         -7.307497   -7.874337   -2.285878 O.2        1 UNL1     -0.2851
     45 O         -8.699007   -6.921115   -0.287181 O.3        1 UNL1     -0.5056
     46 O         -4.384766   -2.061835   -0.514763 O.2        1 UNL1     -0.2836
     47 C         -4.376348   1.519768   -3.252326 C.3        1 UNL1     -0.0566
     48 O         -1.540712   1.275783   -3.430414 O.3        1 UNL1     -0.3909
     49 C         0.208828   0.599317   -0.849017 C.3        1 UNL1     -0.0577
     50 O         -2.73662   1.858269   0.806007 O.3        1 UNL1     -0.3910
     51 O         -2.33176   1.052999   3.510166 O.3        1 UNL1     -0.3753
     52 C         -0.570525   -1.412551   1.291339 C.3        1 UNL1     -0.0564
     53 O         1.732399   0.82148   1.93789 O.3        1 UNL1     -0.4608
     54 C         2.532872   1.777464   1.369325 C.2        1 UNL1     0.3042
     55 O         2.240685   2.550721   0.457986 O.2        1 UNL1     -0.2512
     56 C         3.888353   1.884426   2.00803 C.3        1 UNL1     0.0332
     57 C         -0.946883   3.146175   3.015077 C.3        1 UNL1     -0.0567
     58 C         -4.247905   -3.586584   2.403025 C.3        1 UNL1     0.0210
     59 C         -3.301399   1.135372   4.553661 C.3        1 UNL1     0.0372
     60 C         -3.042343   -0.930593   2.523617 C.2        1 UNL1     -0.0208
     61 C         -4.28926   -0.511802   2.30326 C.2        1 UNL1     0.0882
     62 H         -4.08892   -0.229562   -2.051682 H        1 UNL1     0.0365
     63 H         -5.314142   -1.58569   -2.962712 H        1 UNL1     0.0576
     64 H         -4.835018   -1.64961   -6.006251 H        1 UNL1     0.0615
     65 H         -6.646625   -3.338389   -4.102579 H        1 UNL1     0.0622
     66 H         -1.75083   -0.794914   4.146492 H        1 UNL1     0.0645
     67 H         0.117583   -0.936591   3.151921 H        1 UNL1     0.0362
     68 H         0.471919   1.215619   3.39361 H        1 UNL1     0.0741
     69 H         0.328203   3.006877   1.444988 H        1 UNL1     0.0359
     70 H         -1.47508   3.265747   0.148583 H        1 UNL1     0.0600
     71 H         -0.613125   2.312098   -1.598499 H        1 UNL1     0.0348
     72 H         -2.770911   1.183325   -1.641819 H        1 UNL1     0.0602
     73 H         -2.774183   -1.935152   2.308679 H        1 UNL1     0.0628
     74 H         -4.628354   0.515341   2.441933 H        1 UNL1     0.1022
     75 H         -6.131894   -4.171443   -8.069637 H        1 UNL1     0.0279
     76 H         -5.968788   -5.788962   -7.512565 H        1 UNL1     0.0279
     77 H         -7.588473   -5.039263   -7.812348 H        1 UNL1     0.0279
     78 H         -5.661756   -6.624387   -5.431112 H        1 UNL1     0.1553
     79 H         -4.086197   -5.433013   -5.274688 H        1 UNL1     0.1484
     80 H         -1.246558   -4.780922   -2.835278 H        1 UNL1     0.0317
     81 H         -2.45832   -6.026841   -2.572136 H        1 UNL1     0.0317
     82 H         -2.446189   -6.634473   -5.006133 H        1 UNL1     0.0428
     83 H         -0.863406   -6.757548   -4.270367 H        1 UNL1     0.0428
     84 H         -1.634824   -3.250231   -6.552203 H        1 UNL1     0.0428
     85 H         -2.909657   -4.415888   -6.480318 H        1 UNL1     0.0428
     86 H         -3.086057   -2.451595   -4.952154 H        1 UNL1     0.0317
     87 H         -1.633852   -2.824742   -4.143321 H        1 UNL1     0.0317
     88 H         0.317181   -4.934237   -7.005144 H        1 UNL1     0.0429
     89 H         0.188722   -6.537631   -6.277916 H        1 UNL1     0.0429
     90 H         -2.368238   -6.188658   -7.332033 H        1 UNL1     0.0308
     91 H         -2.055506   -5.289929   -9.671118 H        1 UNL1     0.0233
     92 H         -1.777862   -4.038531   -8.433212 H        1 UNL1     0.0233
     93 H         -0.423549   -4.77236   -9.265038 H        1 UNL1     0.0233
     94 H         -0.676004   -7.31572   -9.364297 H        1 UNL1     0.0233
     95 H         -0.126344   -7.827913   -7.761218 H        1 UNL1     0.0233
     96 H         -1.807364   -8.125321   -8.260928 H        1 UNL1     0.0233
     97 H         -9.55565   -5.188149   2.068489 H        1 UNL1     0.0280
     98 H         -8.369084   -6.363311   2.566731 H        1 UNL1     0.0280
     99 H         -8.134477   -4.637659   2.975163 H        1 UNL1     0.0280
     100 H         -8.423416   -7.756037   0.048345 H        1 UNL1     0.2922
     101 H         -4.213493   1.839074   -4.28149 H        1 UNL1     0.0236
     102 H         -4.033243   2.263721   -2.534136 H        1 UNL1     0.0236
     103 H         -5.472773   1.500944   -3.135319 H        1 UNL1     0.0236
     104 H         -2.071909   2.085035   -3.564246 H        1 UNL1     0.2098
     105 H         0.433593   -0.066061   -1.678815 H        1 UNL1     0.0234
     106 H         1.100201   1.155065   -0.558288 H        1 UNL1     0.0234
     107 H         0.0   0.0   0.0 H        1 UNL1     0.0234
     108 H         -2.694575   0.99862   1.26753 H        1 UNL1     0.2098
     109 H         -1.328168   -1.159189   0.536689 H        1 UNL1     0.0234
     110 H         0.398482   -1.560218   0.802501 H        1 UNL1     0.0234
     111 H         -0.838856   -2.412332   1.657919 H        1 UNL1     0.0234
     112 H         3.837264   2.541143   2.881791 H        1 UNL1     0.0342
     113 H         4.293287   0.909487   2.275177 H        1 UNL1     0.0342
     114 H         4.574455   2.342316   1.282244 H        1 UNL1     0.0342
     115 H         -0.14542   3.335736   3.74234 H        1 UNL1     0.0234
     116 H         -1.382541   4.11092   2.747651 H        1 UNL1     0.0234
     117 H         -1.677523   2.60395   3.639657 H        1 UNL1     0.0234
     118 H         -3.311277   -3.683455   1.826527 H        1 UNL1     0.0309
     119 H         -4.00998   -3.261755   3.420906 H        1 UNL1     0.0309
     120 H         -4.599585   -4.620519   2.489087 H        1 UNL1     0.0309
     121 H         -4.285366   1.17394   4.087101 H        1 UNL1     0.0524
     122 H         -3.281465   0.252388   5.213947 H        1 UNL1     0.0524
     123 H         -3.134998   2.02677   5.151837 H        1 UNL1     0.0524
@<TRIPOS>BOND
     1     1     2    1
     2     1    42    1
     3     2     3    2
     4     3     4    1
     5     4     5    2
     6     5     7    1
     7     6    75    1
     8     6    76    1
     9     6    77    1
    10     7     9   am
    11     9    10    1
    12    10    11    2
    13    10    43    1
    14    11    14    1
    15    11    15    1
    16    12    13   ar
    17    12    27   ar
    18    12    43    1
    19    13    14    1
    20    13    30   ar
    21    14    17    2
    22    15    16    1
    23    16    17    1
    24    16    18    1
    25    16    22    1
    26    18    19    1
    27    19    20    1
    28    20    21    1
    29    21    22    1
    30    23    24    1
    31    23    88    1
    32    23    89    1
    33    24    25    1
    34    24    26    1
    35    24    90    1
    36    25    91    1
    37    25    92    1
    38    25    93    1
    39    26    94    1
    40    26    95    1
    41    26    96    1
    42    27    28   ar
    43    28    29   ar
    44    29    30   ar
    45    29    31    1
    46    30    33    1
    47    31    32    1
    48    32    33    1
    49    32    35    1
    50    34    97    1
    51    34    98    1
    52    34    99    1
    53    35    61    1
    54    36    37    1
    55    36    60    1
    56    37    38    1
    57    38    39    1
    58    39    40    1
    59    40    41    1
    60    41    42    1
    61    45   100    1
    62    47   101    1
    63    47   102    1
    64    47   103    1
    65    48   104    1
    66    49   105    1
    67    49   106    1
    68    49   107    1
    69    50   108    1
    70    51    59    1
    71    52   109    1
    72    52   110    1
    73    52   111    1
    74    53    54    1
    75    54    55    2
    76    54    56    1
    77    56   112    1
    78    56   113    1
    79    56   114    1
    80    57   115    1
    81    57   116    1
    82    57   117    1
    83    58   118    1
    84    58   119    1
    85    58   120    1
    86    59   121    1
    87    59   122    1
    88    59   123    1
    89    60    61    2
    90     1    47    1
    91     1    62    1
    92     2    63    1
    93     3    64    1
    94     4    65    1
    95     5     6    1
    96     7     8    2
    97     9    78    1
    98    15    79    1
    99    18    80    1
   100    18    81    1
   101    19    82    1
   102    19    83    1
   103    20    23    1
   104    21    84    1
   105    21    85    1
   106    22    86    1
   107    22    87    1
   108    27    45    1
   109    28    34    1
   110    32    58    1
   111    33    46    2
   112    36    51    1
   113    36    66    1
   114    37    52    1
   115    37    67    1
   116    38    53    1
   117    38    68    1
   118    42    48    1
   119    42    72    1
   120    43    44    2
   121    60    73    1
   122    61    74    1
   123    39    69    1
   124    39    57    1
   125    40    70    1
   126    40    50    1
   127    41    71    1
   128    41    49    1
