@<TRIPOS>MOLECULE
*****
 123 128 0 0 0
SMALL
GASTEIGER

@<TRIPOS>ATOM
     1 C         2.297845   3.838625   1.525044 C.3        1 UNL1     0.0009
     2 C         1.878527   5.522991   2.17629 C.2        1 UNL1     -0.0787
     3 C         1.48497   6.896922   1.94505 C.2        1 UNL1     -0.0649
     4 C         1.099506   8.076797   3.096428 C.2        1 UNL1     -0.0542
     5 C         0.43977   9.310729   3.31832 C.2        1 UNL1     0.0115
     6 C         -0.249962   10.511353   2.61398 C.3        1 UNL1     -0.0348
     7 C         0.07048   9.734837   4.821898 C.2        1 UNL1     0.2441
     8 O         0.716876   10.554348   5.459941 O.2        1 UNL1     -0.2702
     9 N         -1.191386   9.300182   5.263397 N.am        1 UNL1     -0.2772
     10 C         -1.100459   8.04247   5.814047 C.2        1 UNL1     0.1049
     11 C         -1.122473   7.031944   4.964002 C.2        1 UNL1     0.0801
     12 C         0.213969   6.685098   7.453301 C.ar        1 UNL1     0.0753
     13 C         0.339656   5.702758   6.419948 C.ar        1 UNL1     0.0305
     14 C         -0.436731   5.787642   5.185011 C.2        1 UNL1     0.0924
     15 N         -1.429486   7.010261   3.655644 N.pl3        1 UNL1     -0.3170
     16 C         -1.467653   5.634508   3.236001 C.3        1 UNL1     0.1275
     17 N         -0.521336   4.926736   4.174759 N.2        1 UNL1     -0.2557
     18 C         -2.860676   5.102045   3.55798 C.3        1 UNL1     0.0016
     19 C         -3.890278   5.993392   2.881955 C.3        1 UNL1     0.0026
     20 N         -3.645235   5.985527   1.446364 N.3        1 UNL1     -0.3018
     21 C         -2.307878   6.42364   1.041517 C.3        1 UNL1     0.0026
     22 C         -1.289724   5.511807   1.728409 C.3        1 UNL1     0.0016
     23 C         -4.738779   6.555041   0.684486 C.3        1 UNL1     0.0012
     24 C         -6.057227   6.438985   1.465498 C.3        1 UNL1     -0.0339
     25 C         -6.685012   5.044636   1.305083 C.3        1 UNL1     -0.0615
     26 C         -5.829057   6.784548   2.926766 C.3        1 UNL1     -0.0615
     27 C         0.864622   6.534186   8.675592 C.ar        1 UNL1     0.1347
     28 C         1.633054   5.428667   8.994009 C.ar        1 UNL1     0.0342
     29 C         1.782292   4.498077   7.943821 C.ar        1 UNL1     0.1435
     30 C         1.165893   4.653708   6.701624 C.ar        1 UNL1     0.0774
     31 O         2.409659   3.316692   8.132886 O.3        1 UNL1     -0.4436
     32 C         1.957523   2.488714   7.050805 C.3        1 UNL1     0.3143
     33 C         1.517974   3.455042   5.9695 C.2        1 UNL1     0.2504
     34 C         2.150974   5.079107   10.361367 C.3        1 UNL1     -0.0327
     35 O         3.100181   1.787784   6.544561 O.2        1 UNL1     -0.4528
     36 C         1.786682   -1.51014   5.2005 C.3        1 UNL1     0.0854
     37 C         0.684915   -1.770525   4.102395 C.3        1 UNL1     0.0236
     38 C         1.155478   -2.69372   2.878457 C.3        1 UNL1     0.1131
     39 C         2.495563   -2.35481   2.109314 C.3        1 UNL1     0.0200
     40 C         2.859133   -0.779311   1.699368 C.3        1 UNL1     0.0661
     41 C         1.82145   0.307274   0.911867 C.3        1 UNL1     0.0091
     42 C         1.676178   2.130376   1.05539 C.3        1 UNL1     0.0661
     43 C         -0.70404   7.826152   7.21348 C.2        1 UNL1     0.2131
     44 O         -1.197449   8.492037   8.105602 O.2        1 UNL1     -0.2851
     45 O         0.726806   7.558096   9.6105 O.3        1 UNL1     -0.5056
     46 O         1.486699   3.282025   4.77161 O.2        1 UNL1     -0.2836
     47 C         3.71607   3.842249   0.893691 C.3        1 UNL1     -0.0566
     48 O         1.658961   2.358564   -0.40979 O.3        1 UNL1     -0.3909
     49 C         0.416159   -0.251065   0.942018 C.3        1 UNL1     -0.0577
     50 O         3.527078   -0.126768   2.760386 O.3        1 UNL1     -0.3910
     51 O         3.084195   -1.966845   4.891774 O.3        1 UNL1     -0.3753
     52 C         -0.237859   -0.524993   3.897242 C.3        1 UNL1     -0.0564
     53 O         0.019596   -3.21131   2.04527 O.3        1 UNL1     -0.4608
     54 C         0.100917   -3.570416   0.725285 C.2        1 UNL1     0.3042
     55 O         -0.777004   -3.471606   -0.131062 O.2        1 UNL1     -0.2512
     56 C         1.454293   -4.08439   0.324139 C.3        1 UNL1     0.0332
     57 C         3.658689   -3.245173   2.751629 C.3        1 UNL1     -0.0567
     58 C         0.717482   1.725917   7.572309 C.3        1 UNL1     0.0210
     59 C         3.132215   -3.068641   3.986453 C.3        1 UNL1     0.0372
     60 C         1.922035   -0.092054   5.631629 C.2        1 UNL1     -0.0208
     61 C         3.0116   0.652163   5.825878 C.2        1 UNL1     0.0882
     62 H         2.416027   3.489687   2.557995 H        1 UNL1     0.0365
     63 H         2.066837   5.381669   3.24261 H        1 UNL1     0.0576
     64 H         1.235677   7.260493   0.945662 H        1 UNL1     0.0615
     65 H         1.457721   7.649824   4.037098 H        1 UNL1     0.0622
     66 H         1.432246   -2.060904   6.083155 H        1 UNL1     0.0645
     67 H         -0.044891   -2.428365   4.605574 H        1 UNL1     0.0362
     68 H         1.359297   -3.629217   3.421435 H        1 UNL1     0.0741
     69 H         2.480938   -2.852408   1.148798 H        1 UNL1     0.0359
     70 H         3.647788   -0.956175   0.943191 H        1 UNL1     0.0600
     71 H         2.107374   0.118645   -0.14152 H        1 UNL1     0.0348
     72 H         2.669248   1.873169   1.451587 H        1 UNL1     0.0602
     73 H         0.968195   0.280142   5.912532 H        1 UNL1     0.0628
     74 H         4.016632   0.367628   5.512527 H        1 UNL1     0.1022
     75 H         0.444583   11.383905   2.556571 H        1 UNL1     0.0279
     76 H         -0.531224   10.366953   1.573255 H        1 UNL1     0.0279
     77 H         -1.077938   10.931738   3.203414 H        1 UNL1     0.0279
     78 H         -1.829443   9.242876   4.4724 H        1 UNL1     0.1553
     79 H         -1.947803   7.734368   3.193096 H        1 UNL1     0.1484
     80 H         -2.936898   4.06545   3.208085 H        1 UNL1     0.0317
     81 H         -3.031186   5.08107   4.639709 H        1 UNL1     0.0317
     82 H         -3.867164   7.017829   3.281839 H        1 UNL1     0.0428
     83 H         -4.876305   5.596889   3.126059 H        1 UNL1     0.0428
     84 H         -2.123164   6.332614   -0.033381 H        1 UNL1     0.0428
     85 H         -2.146379   7.490185   1.250603 H        1 UNL1     0.0428
     86 H         -0.336482   5.773847   1.30811 H        1 UNL1     0.0317
     87 H         -1.434834   4.474904   1.401496 H        1 UNL1     0.0317
     88 H         -4.52266   7.618728   0.51969 H        1 UNL1     0.0429
     89 H         -4.82198   6.086745   -0.304732 H        1 UNL1     0.0429
     90 H         -6.765278   7.186243   1.088029 H        1 UNL1     0.0308
     91 H         -7.777805   5.098449   1.30183 H        1 UNL1     0.0233
     92 H         -6.346426   4.572683   0.379756 H        1 UNL1     0.0233
     93 H         -6.402462   4.363509   2.116912 H        1 UNL1     0.0233
     94 H         -5.009101   6.182882   3.33359 H        1 UNL1     0.0233
     95 H         -5.553689   7.83854   3.022867 H        1 UNL1     0.0233
     96 H         -6.724877   6.597738   3.52558 H        1 UNL1     0.0233
     97 H         1.406991   5.24763   11.134231 H        1 UNL1     0.0280
     98 H         2.431124   4.0205   10.439617 H        1 UNL1     0.0280
     99 H         3.033915   5.697849   10.590863 H        1 UNL1     0.0280
     100 H         0.112348   7.37838   10.300258 H        1 UNL1     0.2922
     101 H         4.046619   4.868979   0.738068 H        1 UNL1     0.0236
     102 H         3.780995   3.249075   -0.017854 H        1 UNL1     0.0236
     103 H         4.470775   3.404464   1.568196 H        1 UNL1     0.0236
     104 H         2.435929   2.908086   -0.631866 H        1 UNL1     0.2098
     105 H         0.364394   -1.331426   1.051337 H        1 UNL1     0.0234
     106 H         -0.25103   0.233176   1.654967 H        1 UNL1     0.0234
     107 H         -0.0   0.0   0.0 H        1 UNL1     0.0234
     108 H         4.445398   0.034291   2.469667 H        1 UNL1     0.2098
     109 H         0.329983   0.370213   3.60763 H        1 UNL1     0.0234
     110 H         -1.041422   -0.699206   3.173585 H        1 UNL1     0.0234
     111 H         -0.765908   -0.255847   4.821725 H        1 UNL1     0.0234
     112 H         1.361219   -5.091776   -0.092821 H        1 UNL1     0.0342
     113 H         1.955097   -3.416748   -0.375356 H        1 UNL1     0.0342
     114 H         2.07779   -4.149652   1.226445 H        1 UNL1     0.0342
     115 H         3.257734   -4.025054   3.413602 H        1 UNL1     0.0234
     116 H         4.299411   -3.736052   2.0164 H        1 UNL1     0.0234
     117 H         4.306476   -2.686287   3.448737 H        1 UNL1     0.0234
     118 H         -0.211713   2.05672   7.076151 H        1 UNL1     0.0309
     119 H         0.80869   0.639526   7.474143 H        1 UNL1     0.0309
     120 H         0.520274   1.919096   8.632449 H        1 UNL1     0.0309
     121 H         3.940719   -2.880372   3.280597 H        1 UNL1     0.0524
     122 H         3.352597   -4.02068   4.497424 H        1 UNL1     0.0524
     123 H         2.187654   -3.162444   3.458154 H        1 UNL1     0.0524
@<TRIPOS>BOND
     1     1     2    1
     2     1    42    1
     3     2     3    2
     4     3     4    1
     5     4     5    2
     6     5     7    1
     7     6    75    1
     8     6    76    1
     9     6    77    1
    10     7     9   am
    11     9    10    1
    12    10    11    2
    13    10    43    1
    14    11    14    1
    15    11    15    1
    16    12    13   ar
    17    12    27   ar
    18    12    43    1
    19    13    14    1
    20    13    30   ar
    21    14    17    2
    22    15    16    1
    23    16    17    1
    24    16    18    1
    25    16    22    1
    26    18    19    1
    27    19    20    1
    28    20    21    1
    29    21    22    1
    30    23    24    1
    31    23    88    1
    32    23    89    1
    33    24    25    1
    34    24    26    1
    35    24    90    1
    36    25    91    1
    37    25    92    1
    38    25    93    1
    39    26    94    1
    40    26    95    1
    41    26    96    1
    42    27    28   ar
    43    28    29   ar
    44    29    30   ar
    45    29    31    1
    46    30    33    1
    47    31    32    1
    48    32    33    1
    49    32    35    1
    50    34    97    1
    51    34    98    1
    52    34    99    1
    53    35    61    1
    54    36    37    1
    55    36    60    1
    56    37    38    1
    57    38    39    1
    58    39    40    1
    59    40    41    1
    60    41    42    1
    61    45   100    1
    62    47   101    1
    63    47   102    1
    64    47   103    1
    65    48   104    1
    66    49   105    1
    67    49   106    1
    68    49   107    1
    69    50   108    1
    70    51    59    1
    71    52   109    1
    72    52   110    1
    73    52   111    1
    74    53    54    1
    75    54    55    2
    76    54    56    1
    77    56   112    1
    78    56   113    1
    79    56   114    1
    80    57   115    1
    81    57   116    1
    82    57   117    1
    83    58   118    1
    84    58   119    1
    85    58   120    1
    86    59   121    1
    87    59   122    1
    88    59   123    1
    89    60    61    2
    90     1    47    1
    91     1    62    1
    92     2    63    1
    93     3    64    1
    94     4    65    1
    95     5     6    1
    96     7     8    2
    97     9    78    1
    98    15    79    1
    99    18    80    1
   100    18    81    1
   101    19    82    1
   102    19    83    1
   103    20    23    1
   104    21    84    1
   105    21    85    1
   106    22    86    1
   107    22    87    1
   108    27    45    1
   109    28    34    1
   110    32    58    1
   111    33    46    2
   112    36    51    1
   113    36    66    1
   114    37    52    1
   115    37    67    1
   116    38    53    1
   117    38    68    1
   118    42    48    1
   119    42    72    1
   120    43    44    2
   121    60    73    1
   122    61    74    1
   123    39    69    1
   124    39    57    1
   125    40    70    1
   126    40    50    1
   127    41    71    1
   128    41    49    1
