@<TRIPOS>MOLECULE
*****
 123 128 0 0 0
SMALL
GASTEIGER

@<TRIPOS>ATOM
     1 C         5.169176   1.741379   0.496793 C.3        1 UNL1     0.0009
     2 C         6.607753   2.545805   -0.35199 C.2        1 UNL1     -0.0787
     3 C         7.89018   2.446102   -1.016435 C.2        1 UNL1     -0.0649
     4 C         8.769968   3.680239   -1.77091 C.2        1 UNL1     -0.0542
     5 C         9.791318   3.97175   -2.70843 C.2        1 UNL1     0.0115
     6 C         10.919595   3.34502   -3.573025 C.3        1 UNL1     -0.0348
     7 C         9.889164   5.454991   -3.314574 C.2        1 UNL1     0.2441
     8 O         10.713712   6.275519   -2.935918 O.2        1 UNL1     -0.2702
     9 N         9.140395   5.663123   -4.485973 N.am        1 UNL1     -0.2772
     10 C         7.857857   6.051384   -4.17345 C.2        1 UNL1     0.1049
     11 C         7.010537   5.081   -3.882547 C.2        1 UNL1     0.0801
     12 C         6.560085   7.659441   -2.763742 C.ar        1 UNL1     0.0753
     13 C         5.799136   6.532416   -2.317224 C.ar        1 UNL1     0.0305
     14 C         5.915056   5.226681   -2.962724 C.2        1 UNL1     0.0924
     15 N         7.131622   3.751894   -4.041749 N.pl3        1 UNL1     -0.3170
     16 C         5.860681   3.15429   -3.728967 C.3        1 UNL1     0.1275
     17 N         5.224507   4.110162   -2.749521 N.2        1 UNL1     -0.2557
     18 C         5.009191   3.214672   -4.993491 C.3        1 UNL1     0.0016
     19 C         5.764343   2.529817   -6.121457 C.3        1 UNL1     0.0026
     20 N         6.032335   1.151303   -5.73557 N.3        1 UNL1     -0.3018
     21 C         6.794229   0.989716   -4.4955 C.3        1 UNL1     0.0026
     22 C         6.015229   1.681031   -3.375171 C.3        1 UNL1     0.0016
     23 C         6.47692   0.331395   -6.844956 C.3        1 UNL1     0.0012
     24 C         5.321035   0.07993   -7.826003 C.3        1 UNL1     -0.0339
     25 C         5.339569   1.087696   -8.987089 C.3        1 UNL1     -0.0615
     26 C         5.366725   -1.352641   -8.328431 C.3        1 UNL1     -0.0615
     27 C         6.356496   8.9273   -2.22411 C.ar        1 UNL1     0.1347
     28 C         5.39681   9.197904   -1.265033 C.ar        1 UNL1     0.0342
     29 C         4.693336   8.064269   -0.805512 C.ar        1 UNL1     0.1435
     30 C         4.911654   6.782052   -1.310957 C.ar        1 UNL1     0.0774
     31 O         3.651627   8.179015   0.046945 O.3        1 UNL1     -0.4436
     32 C         2.928521   6.947142   -0.096161 C.3        1 UNL1     0.3143
     33 C         3.941087   5.952837   -0.62746 C.2        1 UNL1     0.2504
     34 C         4.95127   10.5645   -0.824571 C.3        1 UNL1     -0.0327
     35 O         2.565998   6.510676   1.219638 O.2        1 UNL1     -0.4528
     36 C         -0.679109   4.582699   0.819301 C.3        1 UNL1     0.0854
     37 C         -0.985119   3.322659   -0.078574 C.3        1 UNL1     0.0236
     38 C         -1.588077   2.062248   0.708542 C.3        1 UNL1     0.1131
     39 C         -0.864308   1.530167   2.010585 C.3        1 UNL1     0.0200
     40 C         0.796655   1.382495   2.0534 C.3        1 UNL1     0.0661
     41 C         1.756217   0.612638   0.885423 C.3        1 UNL1     0.0091
     42 C         3.464833   0.973109   0.323198 C.3        1 UNL1     0.0661
     43 C         7.510989   7.450715   -3.883776 C.2        1 UNL1     0.2131
     44 O         7.91274   8.348402   -4.601753 O.2        1 UNL1     -0.2851
     45 O         7.170545   9.961446   -2.681608 O.3        1 UNL1     -0.5056
     46 O         3.955408   4.749261   -0.496868 O.2        1 UNL1     -0.2836
     47 C         5.563545   1.311158   1.935322 C.3        1 UNL1     -0.0566
     48 O         3.911511   -0.438581   0.405199 O.3        1 UNL1     -0.3909
     49 C         0.922979   0.381318   -0.355423 C.3        1 UNL1     -0.0577
     50 O         1.398014   2.599525   2.447009 O.3        1 UNL1     -0.3910
     51 O         -0.804836   4.392955   2.210567 O.3        1 UNL1     -0.3753
     52 C         0.060286   3.161041   -1.230076 C.3        1 UNL1     -0.0564
     53 O         -2.191104   1.024182   -0.192071 O.3        1 UNL1     -0.4608
     54 C         -2.415421   -0.285577   0.142804 C.2        1 UNL1     0.3042
     55 O         -1.844072   -1.279223   -0.304486 O.2        1 UNL1     -0.2512
     56 C         -3.446106   -0.462545   1.221267 C.3        1 UNL1     0.0332
     57 C         -1.585744   2.199878   3.271217 C.3        1 UNL1     -0.0567
     58 C         1.854727   7.193783   -1.181363 C.3        1 UNL1     0.0210
     59 C         -1.155898   5.564215   2.945939 C.3        1 UNL1     0.0372
     60 C         0.65092   5.21012   0.590117 C.2        1 UNL1     -0.0208
     61 C         1.563541   5.644046   1.460506 C.2        1 UNL1     0.0882
     62 H         4.694428   2.726146   0.583743 H        1 UNL1     0.0365
     63 H         6.342749   3.599928   -0.246782 H        1 UNL1     0.0576
     64 H         8.346817   1.478702   -1.237179 H        1 UNL1     0.0615
     65 H         8.283711   4.596203   -1.424432 H        1 UNL1     0.0622
     66 H         -1.422493   5.330229   0.508453 H        1 UNL1     0.0645
     67 H         -1.849659   3.633228   -0.690682 H        1 UNL1     0.0362
     68 H         -2.534938   2.500281   1.059403 H        1 UNL1     0.0741
     69 H         -1.197319   0.519464   2.205495 H        1 UNL1     0.0359
     70 H         0.906706   0.721883   2.934616 H        1 UNL1     0.0600
     71 H         1.798067   -0.408649   1.312246 H        1 UNL1     0.0348
     72 H         3.358599   1.461296   1.302842 H        1 UNL1     0.0602
     73 H         0.770102   5.40738   -0.446286 H        1 UNL1     0.0628
     74 H         1.544659   5.433238   2.530292 H        1 UNL1     0.1022
     75 H         10.962508   2.239661   -3.420137 H        1 UNL1     0.0279
     76 H         10.807143   3.428122   -4.65169 H        1 UNL1     0.0279
     77 H         11.924733   3.648386   -3.245356 H        1 UNL1     0.0279
     78 H         9.077803   4.793335   -5.010977 H        1 UNL1     0.1553
     79 H         7.796959   3.323147   -4.658544 H        1 UNL1     0.1484
     80 H         4.047089   2.72494   -4.800389 H        1 UNL1     0.0317
     81 H         4.784181   4.251756   -5.264558 H        1 UNL1     0.0317
     82 H         6.695932   3.059964   -6.368435 H        1 UNL1     0.0428
     83 H         5.140149   2.585898   -7.013807 H        1 UNL1     0.0428
     84 H         6.912905   -0.053437   -4.186372 H        1 UNL1     0.0428
     85 H         7.824895   1.356445   -4.598236 H        1 UNL1     0.0428
     86 H         6.530427   1.429868   -2.466614 H        1 UNL1     0.0317
     87 H         5.03505   1.204631   -3.251129 H        1 UNL1     0.0317
     88 H         7.272014   0.873625   -7.373262 H        1 UNL1     0.0429
     89 H         6.910784   -0.613639   -6.493605 H        1 UNL1     0.0429
     90 H         4.368586   0.179849   -7.292084 H        1 UNL1     0.0308
     91 H         6.287749   1.049599   -9.531705 H        1 UNL1     0.0233
     92 H         4.519053   0.892161   -9.681443 H        1 UNL1     0.0233
     93 H         5.210648   2.121636   -8.64477 H        1 UNL1     0.0233
     94 H         4.669639   -1.482499   -9.163322 H        1 UNL1     0.0233
     95 H         6.371676   -1.590535   -8.688213 H        1 UNL1     0.0233
     96 H         5.09725   -2.060855   -7.539897 H        1 UNL1     0.0233
     97 H         4.157133   10.515626   -0.085526 H        1 UNL1     0.0280
     98 H         5.764284   11.133433   -0.35491 H        1 UNL1     0.0280
     99 H         4.57918   11.129642   -1.694777 H        1 UNL1     0.0280
     100 H         6.704791   10.71244   -3.005189 H        1 UNL1     0.2922
     101 H         4.699676   0.878548   2.439539 H        1 UNL1     0.0236
     102 H         6.014779   2.11584   2.514854 H        1 UNL1     0.0236
     103 H         6.318767   0.507522   1.934854 H        1 UNL1     0.0236
     104 H         4.330015   -0.565236   1.279146 H        1 UNL1     0.2098
     105 H         0.712685   1.280395   -0.929224 H        1 UNL1     0.0234
     106 H         1.291592   -0.407589   -1.010922 H        1 UNL1     0.0234
     107 H         0.0   -0.0   0.0 H        1 UNL1     0.0234
     108 H         1.198602   3.258867   1.754715 H        1 UNL1     0.2098
     109 H         1.084597   3.0462   -0.848881 H        1 UNL1     0.0234
     110 H         -0.172538   2.334339   -1.909855 H        1 UNL1     0.0234
     111 H         0.083254   4.043923   -1.882717 H        1 UNL1     0.0234
     112 H         -3.573038   -1.526369   1.443786 H        1 UNL1     0.0342
     113 H         -3.197558   0.09792   2.121237 H        1 UNL1     0.0342
     114 H         -4.40515   -0.080345   0.84534 H        1 UNL1     0.0342
     115 H         -2.650299   1.932803   3.322036 H        1 UNL1     0.0234
     116 H         -1.135488   1.938618   4.230936 H        1 UNL1     0.0234
     117 H         -1.644747   3.300258   3.211015 H        1 UNL1     0.0234
     118 H         0.953867   7.681779   -0.769882 H        1 UNL1     0.0309
     119 H         2.225686   7.781416   -2.027104 H        1 UNL1     0.0309
     120 H         1.465388   6.262382   -1.606821 H        1 UNL1     0.0309
     121 H         -0.356374   6.291715   2.808603 H        1 UNL1     0.0524
     122 H         -2.089258   6.023718   2.580244 H        1 UNL1     0.0524
     123 H         -1.269329   5.326399   3.999823 H        1 UNL1     0.0524
@<TRIPOS>BOND
     1     1     2    1
     2     1    42    1
     3     2     3    2
     4     3     4    1
     5     4     5    2
     6     5     7    1
     7     6    75    1
     8     6    76    1
     9     6    77    1
    10     7     9   am
    11     9    10    1
    12    10    11    2
    13    10    43    1
    14    11    14    1
    15    11    15    1
    16    12    13   ar
    17    12    27   ar
    18    12    43    1
    19    13    14    1
    20    13    30   ar
    21    14    17    2
    22    15    16    1
    23    16    17    1
    24    16    18    1
    25    16    22    1
    26    18    19    1
    27    19    20    1
    28    20    21    1
    29    21    22    1
    30    23    24    1
    31    23    88    1
    32    23    89    1
    33    24    25    1
    34    24    26    1
    35    24    90    1
    36    25    91    1
    37    25    92    1
    38    25    93    1
    39    26    94    1
    40    26    95    1
    41    26    96    1
    42    27    28   ar
    43    28    29   ar
    44    29    30   ar
    45    29    31    1
    46    30    33    1
    47    31    32    1
    48    32    33    1
    49    32    35    1
    50    34    97    1
    51    34    98    1
    52    34    99    1
    53    35    61    1
    54    36    37    1
    55    36    60    1
    56    37    38    1
    57    38    39    1
    58    39    40    1
    59    40    41    1
    60    41    42    1
    61    45   100    1
    62    47   101    1
    63    47   102    1
    64    47   103    1
    65    48   104    1
    66    49   105    1
    67    49   106    1
    68    49   107    1
    69    50   108    1
    70    51    59    1
    71    52   109    1
    72    52   110    1
    73    52   111    1
    74    53    54    1
    75    54    55    2
    76    54    56    1
    77    56   112    1
    78    56   113    1
    79    56   114    1
    80    57   115    1
    81    57   116    1
    82    57   117    1
    83    58   118    1
    84    58   119    1
    85    58   120    1
    86    59   121    1
    87    59   122    1
    88    59   123    1
    89    60    61    2
    90     1    47    1
    91     1    62    1
    92     2    63    1
    93     3    64    1
    94     4    65    1
    95     5     6    1
    96     7     8    2
    97     9    78    1
    98    15    79    1
    99    18    80    1
   100    18    81    1
   101    19    82    1
   102    19    83    1
   103    20    23    1
   104    21    84    1
   105    21    85    1
   106    22    86    1
   107    22    87    1
   108    27    45    1
   109    28    34    1
   110    32    58    1
   111    33    46    2
   112    36    51    1
   113    36    66    1
   114    37    52    1
   115    37    67    1
   116    38    53    1
   117    38    68    1
   118    42    48    1
   119    42    72    1
   120    43    44    2
   121    60    73    1
   122    61    74    1
   123    39    69    1
   124    39    57    1
   125    40    70    1
   126    40    50    1
   127    41    71    1
   128    41    49    1
