@<TRIPOS>MOLECULE
*****
 123 128 0 0 0
SMALL
GASTEIGER

@<TRIPOS>ATOM
     1 C         5.019537   2.086172   0.68109 C.3        1 UNL1     0.0009
     2 C         6.404306   3.038483   -0.10157 C.2        1 UNL1     -0.0787
     3 C         7.703576   3.070167   -0.739487 C.2        1 UNL1     -0.0649
     4 C         8.49459   4.401415   -1.423909 C.2        1 UNL1     -0.0542
     5 C         9.507226   4.812911   -2.325196 C.2        1 UNL1     0.0115
     6 C         10.699883   4.315568   -3.187485 C.3        1 UNL1     -0.0348
     7 C         9.495778   6.322987   -2.86974 C.2        1 UNL1     0.2441
     8 O         10.242914   7.191046   -2.439873 O.2        1 UNL1     -0.2702
     9 N         8.756014   6.518225   -4.049054 N.am        1 UNL1     -0.2772
     10 C         7.440099   6.788444   -3.751273 C.2        1 UNL1     0.1049
     11 C         6.669157   5.741639   -3.518745 C.2        1 UNL1     0.0801
     12 C         5.987612   8.226863   -2.30955 C.ar        1 UNL1     0.0753
     13 C         5.312415   7.024605   -1.925763 C.ar        1 UNL1     0.0305
     14 C         5.547331   5.760281   -2.619559 C.2        1 UNL1     0.0924
     15 N         6.901437   4.434363   -3.727558 N.pl3        1 UNL1     -0.3170
     16 C         5.677516   3.723703   -3.468259 C.3        1 UNL1     0.1275
     17 N         4.946078   4.58381   -2.466792 N.2        1 UNL1     -0.2557
     18 C         4.849306   3.767357   -4.748831 C.3        1 UNL1     0.0016
     19 C         5.680147   3.192892   -5.885177 C.3        1 UNL1     0.0026
     20 N         6.051984   1.825745   -5.54802 N.3        1 UNL1     -0.3018
     21 C         6.799661   1.675081   -4.297961 C.3        1 UNL1     0.0026
     22 C         5.94468   2.25437   -3.169542 C.3        1 UNL1     0.0016
     23 C         6.584006   1.090946   -6.678359 C.3        1 UNL1     0.0012
     24 C         5.473136   0.791557   -7.697226 C.3        1 UNL1     -0.0339
     25 C         5.821398   1.346445   -9.088222 C.3        1 UNL1     -0.0615
     26 C         5.197765   -0.701353   -7.743819 C.3        1 UNL1     -0.0615
     27 C         5.670537   9.450765   -1.725045 C.ar        1 UNL1     0.1347
     28 C         4.673051   9.603153   -0.778551 C.ar        1 UNL1     0.0342
     29 C         4.055406   8.398415   -0.380702 C.ar        1 UNL1     0.1435
     30 C         4.387649   7.15999   -0.931282 C.ar        1 UNL1     0.0774
     31 O         2.991028   8.393374   0.451213 O.3        1 UNL1     -0.4436
     32 C         2.373845   7.11412   0.242726 C.3        1 UNL1     0.3143
     33 C         3.474552   6.227602   -0.303849 C.2        1 UNL1     0.2504
     34 C         4.1088   10.909953   -0.294822 C.3        1 UNL1     -0.0327
     35 O         2.021998   6.595815   1.531453 O.2        1 UNL1     -0.4528
     36 C         -1.046349   4.430374   0.97991 C.3        1 UNL1     0.0854
     37 C         -1.230571   3.187928   0.026017 C.3        1 UNL1     0.0236
     38 C         -1.744238   1.851512   0.748433 C.3        1 UNL1     0.1131
     39 C         -1.005557   1.326243   2.044855 C.3        1 UNL1     0.0200
     40 C         0.660733   1.311485   2.120343 C.3        1 UNL1     0.0661
     41 C         1.702996   0.670522   0.945412 C.3        1 UNL1     0.0091
     42 C         3.387364   1.190664   0.43771 C.3        1 UNL1     0.0661
     43 C         6.974505   8.142038   -3.414587 C.2        1 UNL1     0.2131
     44 O         7.315896   9.098126   -4.086961 O.2        1 UNL1     -0.2851
     45 O         6.406443   10.565266   -2.122243 O.3        1 UNL1     -0.5056
     46 O         3.584427   5.024745   -0.220686 O.2        1 UNL1     -0.2836
     47 C         5.418952   1.630113   2.110237 C.3        1 UNL1     -0.0566
     48 O         3.946018   -0.182542   0.474136 O.3        1 UNL1     -0.3909
     49 C         0.916303   0.424171   -0.322626 C.3        1 UNL1     -0.0577
     50 O         1.152819   2.555778   2.575656 O.3        1 UNL1     -0.3910
     51 O         -1.183873   4.173772   2.359284 O.3        1 UNL1     -0.3753
     52 C         -0.152727   3.158947   -1.106397 C.3        1 UNL1     -0.0564
     53 O         -2.242486   0.806262   -0.206306 O.3        1 UNL1     -0.4608
     54 C         -2.346233   -0.533113   0.064322 C.2        1 UNL1     0.3042
     55 O         -1.589184   -1.430339   -0.304054 O.2        1 UNL1     -0.2512
     56 C         -3.501349   -0.877823   0.960757 C.3        1 UNL1     0.0332
     57 C         -1.804209   1.882865   3.31391 C.3        1 UNL1     -0.0567
     58 C         1.305345   7.317909   -0.856504 C.3        1 UNL1     0.0210
     59 C         -1.606169   5.292401   3.137872 C.3        1 UNL1     0.0372
     60 C         0.232352   5.172043   0.806672 C.2        1 UNL1     -0.0208
     61 C         1.088997   5.641882   1.714503 C.2        1 UNL1     0.0882
     62 H         4.464381   3.024966   0.795893 H        1 UNL1     0.0365
     63 H         6.052129   4.062523   0.039084 H        1 UNL1     0.0576
     64 H         8.241935   2.152736   -0.987677 H        1 UNL1     0.0615
     65 H         7.928407   5.260036   -1.052842 H        1 UNL1     0.0622
     66 H         -1.841907   5.127662   0.681709 H        1 UNL1     0.0645
     67 H         -2.105201   3.452724   -0.593229 H        1 UNL1     0.0362
     68 H         -2.730487   2.196809   1.094275 H        1 UNL1     0.0741
     69 H         -1.258806   0.284768   2.191837 H        1 UNL1     0.0359
     70 H         0.806738   0.626064   2.977047 H        1 UNL1     0.0600
     71 H         1.819525   -0.360816   1.332346 H        1 UNL1     0.0348
     72 H         3.22215   1.627782   1.433173 H        1 UNL1     0.0602
     73 H         0.355669   5.420938   -0.218068 H        1 UNL1     0.0628
     74 H         1.066066   5.386211   2.774382 H        1 UNL1     0.1022
     75 H         10.780658   3.20279   -3.140197 H        1 UNL1     0.0279
     76 H         10.635367   4.500504   -4.257394 H        1 UNL1     0.0279
     77 H         11.675121   4.621193   -2.781032 H        1 UNL1     0.0279
     78 H         8.775076   5.668664   -4.609375 H        1 UNL1     0.1553
     79 H         7.611696   4.086577   -4.345223 H        1 UNL1     0.1484
     80 H         3.926716   3.194001   -4.597647 H        1 UNL1     0.0317
     81 H         4.54587   4.793206   -4.983801 H        1 UNL1     0.0317
     82 H         6.570108   3.80626   -6.089289 H        1 UNL1     0.0428
     83 H         5.071365   3.23523   -6.788859 H        1 UNL1     0.0428
     84 H         6.996875   0.633032   -4.027679 H        1 UNL1     0.0428
     85 H         7.798808   2.127741   -4.362149 H        1 UNL1     0.0428
     86 H         6.460447   2.008285   -2.259919 H        1 UNL1     0.0317
     87 H         5.004365   1.695685   -3.087238 H        1 UNL1     0.0317
     88 H         7.344827   1.715685   -7.164308 H        1 UNL1     0.0429
     89 H         7.083739   0.168746   -6.354957 H        1 UNL1     0.0429
     90 H         4.540218   1.257792   -7.358842 H        1 UNL1     0.0308
     91 H         6.851311   1.103935   -9.366736 H        1 UNL1     0.0233
     92 H         5.141795   0.947058   -9.844687 H        1 UNL1     0.0233
     93 H         5.726985   2.437974   -9.138059 H        1 UNL1     0.0233
     94 H         4.721584   -0.968133   -8.693512 H        1 UNL1     0.0233
     95 H         6.136778   -1.256986   -7.669736 H        1 UNL1     0.0233
     96 H         4.538908   -1.011259   -6.927833 H        1 UNL1     0.0233
     97 H         3.25351   10.767402   0.358928 H        1 UNL1     0.0280
     98 H         4.839636   11.485957   0.28772 H        1 UNL1     0.0280
     99 H         3.786818   11.515044   -1.158122 H        1 UNL1     0.0280
     100 H         5.887055   11.314535   -2.355601 H        1 UNL1     0.2922
     101 H         4.551255   1.209246   2.61781 H        1 UNL1     0.0236
     102 H         5.89248   2.418058   2.694957 H        1 UNL1     0.0236
     103 H         6.157258   0.811103   2.092392 H        1 UNL1     0.0236
     104 H         4.269562   -0.345363   1.381759 H        1 UNL1     0.2098
     105 H         0.685667   1.322505   -0.889735 H        1 UNL1     0.0234
     106 H         1.336069   -0.338908   -0.977939 H        1 UNL1     0.0234
     107 H         0.0   -0.0   0.0 H        1 UNL1     0.0234
     108 H         0.972374   3.212716   1.875913 H        1 UNL1     0.2098
     109 H         0.870196   3.123984   -0.70625 H        1 UNL1     0.0234
     110 H         -0.296623   2.337599   -1.816626 H        1 UNL1     0.0234
     111 H         -0.197061   4.061409   -1.730531 H        1 UNL1     0.0234
     112 H         -3.514435   -1.954889   1.153383 H        1 UNL1     0.0342
     113 H         -3.47901   -0.314534   1.892449 H        1 UNL1     0.0342
     114 H         -4.43157   -0.618056   0.436952 H        1 UNL1     0.0342
     115 H         -2.876176   1.648767   3.256691 H        1 UNL1     0.0234
     116 H         -1.436375   1.505868   4.270268 H        1 UNL1     0.0234
     117 H         -1.829388   2.984796   3.369181 H        1 UNL1     0.0234
     118 H         0.281138   7.318022   -0.444187 H        1 UNL1     0.0309
     119 H         1.45707   8.232238   -1.4389 H        1 UNL1     0.0309
     120 H         1.285792   6.496557   -1.581145 H        1 UNL1     0.0309
     121 H         -1.245009   5.141472   4.154799 H        1 UNL1     0.0524
     122 H         -1.180457   6.241519   2.771837 H        1 UNL1     0.0524
     123 H         -2.689935   5.366652   3.13215 H        1 UNL1     0.0524
@<TRIPOS>BOND
     1     1     2    1
     2     1    42    1
     3     2     3    2
     4     3     4    1
     5     4     5    2
     6     5     7    1
     7     6    75    1
     8     6    76    1
     9     6    77    1
    10     7     9   am
    11     9    10    1
    12    10    11    2
    13    10    43    1
    14    11    14    1
    15    11    15    1
    16    12    13   ar
    17    12    27   ar
    18    12    43    1
    19    13    14    1
    20    13    30   ar
    21    14    17    2
    22    15    16    1
    23    16    17    1
    24    16    18    1
    25    16    22    1
    26    18    19    1
    27    19    20    1
    28    20    21    1
    29    21    22    1
    30    23    24    1
    31    23    88    1
    32    23    89    1
    33    24    25    1
    34    24    26    1
    35    24    90    1
    36    25    91    1
    37    25    92    1
    38    25    93    1
    39    26    94    1
    40    26    95    1
    41    26    96    1
    42    27    28   ar
    43    28    29   ar
    44    29    30   ar
    45    29    31    1
    46    30    33    1
    47    31    32    1
    48    32    33    1
    49    32    35    1
    50    34    97    1
    51    34    98    1
    52    34    99    1
    53    35    61    1
    54    36    37    1
    55    36    60    1
    56    37    38    1
    57    38    39    1
    58    39    40    1
    59    40    41    1
    60    41    42    1
    61    45   100    1
    62    47   101    1
    63    47   102    1
    64    47   103    1
    65    48   104    1
    66    49   105    1
    67    49   106    1
    68    49   107    1
    69    50   108    1
    70    51    59    1
    71    52   109    1
    72    52   110    1
    73    52   111    1
    74    53    54    1
    75    54    55    2
    76    54    56    1
    77    56   112    1
    78    56   113    1
    79    56   114    1
    80    57   115    1
    81    57   116    1
    82    57   117    1
    83    58   118    1
    84    58   119    1
    85    58   120    1
    86    59   121    1
    87    59   122    1
    88    59   123    1
    89    60    61    2
    90     1    47    1
    91     1    62    1
    92     2    63    1
    93     3    64    1
    94     4    65    1
    95     5     6    1
    96     7     8    2
    97     9    78    1
    98    15    79    1
    99    18    80    1
   100    18    81    1
   101    19    82    1
   102    19    83    1
   103    20    23    1
   104    21    84    1
   105    21    85    1
   106    22    86    1
   107    22    87    1
   108    27    45    1
   109    28    34    1
   110    32    58    1
   111    33    46    2
   112    36    51    1
   113    36    66    1
   114    37    52    1
   115    37    67    1
   116    38    53    1
   117    38    68    1
   118    42    48    1
   119    42    72    1
   120    43    44    2
   121    60    73    1
   122    61    74    1
   123    39    69    1
   124    39    57    1
   125    40    70    1
   126    40    50    1
   127    41    71    1
   128    41    49    1
