@<TRIPOS>MOLECULE
*****
 123 128 0 0 0
SMALL
GASTEIGER

@<TRIPOS>ATOM
     1 C         3.697175   -2.134672   2.209701 C.3        1 UNL1     0.0009
     2 C         4.608751   -3.748424   2.166481 C.2        1 UNL1     -0.0787
     3 C         4.709746   -5.144295   2.537146 C.2        1 UNL1     -0.0649
     4 C         5.868627   -6.272578   2.036816 C.2        1 UNL1     -0.0542
     5 C         6.162912   -7.651561   1.899412 C.2        1 UNL1     0.0115
     6 C         5.680499   -9.082021   2.265999 C.3        1 UNL1     -0.0348
     7 C         7.35402   -8.097906   0.920113 C.2        1 UNL1     0.2441
     8 O         8.459819   -8.429012   1.325211 O.2        1 UNL1     -0.2702
     9 N         6.965623   -8.334057   -0.410124 N.am        1 UNL1     -0.2772
     10 C         7.020746   -7.169206   -1.140471 C.2        1 UNL1     0.1049
     11 C         5.97213   -6.372045   -1.044764 C.2        1 UNL1     0.0801
     12 C         8.502283   -5.221646   -1.659499 C.ar        1 UNL1     0.0753
     13 C         7.384561   -4.386573   -1.340186 C.ar        1 UNL1     0.0305
     14 C         6.045672   -4.939944   -1.149902 C.2        1 UNL1     0.0924
     15 N         4.758704   -6.600843   -0.513936 N.pl3        1 UNL1     -0.3170
     16 C         3.925315   -5.468074   -0.818158 C.3        1 UNL1     0.1275
     17 N         4.889246   -4.31426   -0.949589 N.2        1 UNL1     -0.2557
     18 C         3.344254   -5.695154   -2.210459 C.3        1 UNL1     0.0016
     19 C         2.617395   -7.030491   -2.222242 C.3        1 UNL1     0.0026
     20 N         1.566444   -6.999915   -1.214475 N.3        1 UNL1     -0.3018
     21 C         2.021427   -6.725856   0.150169 C.3        1 UNL1     0.0026
     22 C         2.744612   -5.377974   0.139637 C.3        1 UNL1     0.0016
     23 C         0.628617   -8.097316   -1.34422 C.3        1 UNL1     0.0012
     24 C         -0.242511   -7.916078   -2.597234 C.3        1 UNL1     -0.0339
     25 C         0.32874   -8.690849   -3.796175 C.3        1 UNL1     -0.0615
     26 C         -1.674825   -8.324026   -2.299186 C.3        1 UNL1     -0.0615
     27 C         9.748702   -4.67626   -1.958015 C.ar        1 UNL1     0.1347
     28 C         9.988227   -3.314565   -2.007659 C.ar        1 UNL1     0.0342
     29 C         8.885855   -2.513164   -1.642014 C.ar        1 UNL1     0.1435
     30 C         7.641111   -3.046613   -1.305464 C.ar        1 UNL1     0.0774
     31 O         8.927639   -1.166958   -1.746846 O.3        1 UNL1     -0.4436
     32 C         7.55067   -0.761094   -1.757157 C.3        1 UNL1     0.3143
     33 C         6.799912   -1.889774   -1.079915 C.2        1 UNL1     0.2504
     34 C         11.22095   -2.655776   -2.561276 C.3        1 UNL1     -0.0327
     35 O         7.438085   0.385292   -0.904879 O.2        1 UNL1     -0.4528
     36 C         4.588713   2.456933   -2.318199 C.3        1 UNL1     0.0854
     37 C         3.087787   2.044546   -2.572519 C.3        1 UNL1     0.0236
     38 C         1.998923   2.990492   -1.871585 C.3        1 UNL1     0.1131
     39 C         2.125553   3.325622   -0.330832 C.3        1 UNL1     0.0200
     40 C         2.509027   2.128345   0.765487 C.3        1 UNL1     0.0661
     41 C         1.755383   0.613426   0.886531 C.3        1 UNL1     0.0091
     42 C         2.432686   -1.01596   1.388292 C.3        1 UNL1     0.0661
     43 C         8.268076   -6.684261   -1.749855 C.2        1 UNL1     0.2131
     44 O         8.988238   -7.444053   -2.371803 O.2        1 UNL1     -0.2851
     45 O         10.795224   -5.560082   -2.213134 O.3        1 UNL1     -0.5056
     46 O         5.754094   -1.840939   -0.471857 O.2        1 UNL1     -0.2836
     47 C         3.856667   -1.46229   3.599826 C.3        1 UNL1     -0.0566
     48 O         1.315333   -1.32327   2.313602 O.3        1 UNL1     -0.3909
     49 C         0.922964   0.381908   -0.354828 C.3        1 UNL1     -0.0577
     50 O         3.910311   1.98119   0.877156 O.3        1 UNL1     -0.3910
     51 O         4.793797   3.485989   -1.376703 O.3        1 UNL1     -0.3753
     52 C         2.915518   0.492214   -2.64692 C.3        1 UNL1     -0.0564
     53 O         0.607859   2.800238   -2.401744 O.3        1 UNL1     -0.4608
     54 C         -0.545593   3.15998   -1.755165 C.2        1 UNL1     0.3042
     55 O         -1.404544   2.412653   -1.288749 O.2        1 UNL1     -0.2512
     56 C         -0.697218   4.643843   -1.576631 C.3        1 UNL1     0.0332
     57 C         2.888514   4.725513   -0.202878 C.3        1 UNL1     -0.0567
     58 C         7.124139   -0.698753   -3.242321 C.3        1 UNL1     0.0210
     59 C         5.966405   4.270011   -1.59156 C.3        1 UNL1     0.0372
     60 C         5.491959   1.337931   -1.934607 C.2        1 UNL1     -0.0208
     61 C         6.421327   1.265306   -0.980801 C.2        1 UNL1     0.0882
     62 H         4.470073   -1.702689   1.562607 H        1 UNL1     0.0365
     63 H         5.51354   -3.456822   1.629086 H        1 UNL1     0.0576
     64 H         3.90716   -5.653029   3.075804 H        1 UNL1     0.0615
     65 H         6.653177   -5.65823   1.58677 H        1 UNL1     0.0622
     66 H         4.94672   2.811884   -3.294871 H        1 UNL1     0.0645
     67 H         2.923747   2.274395   -3.639674 H        1 UNL1     0.0362
     68 H         2.212443   3.935371   -2.39421 H        1 UNL1     0.0741
     69 H         1.167986   3.678285   0.028475 H        1 UNL1     0.0359
     70 H         2.207485   2.627506   1.706217 H        1 UNL1     0.0600
     71 H         0.97123   0.846757   1.63327 H        1 UNL1     0.0348
     72 H         3.134378   -0.263368   1.7763 H        1 UNL1     0.0602
     73 H         5.397531   0.553907   -2.644282 H        1 UNL1     0.0628
     74 H         6.543906   1.997751   -0.182216 H        1 UNL1     0.1022
     75 H         4.73889   -9.036789   2.86463 H        1 UNL1     0.0279
     76 H         5.399832   -9.726865   1.436257 H        1 UNL1     0.0279
     77 H         6.357944   -9.592995   2.965766 H        1 UNL1     0.0279
     78 H         6.002959   -8.664027   -0.431931 H        1 UNL1     0.1553
     79 H         4.388788   -7.51814   -0.344642 H        1 UNL1     0.1484
     80 H         2.666558   -4.868088   -2.454297 H        1 UNL1     0.0317
     81 H         4.133542   -5.687919   -2.969816 H        1 UNL1     0.0317
     82 H         3.306329   -7.870565   -2.050318 H        1 UNL1     0.0428
     83 H         2.212462   -7.173251   -3.224589 H        1 UNL1     0.0428
     84 H         1.205712   -6.629217   0.873412 H        1 UNL1     0.0428
     85 H         2.635587   -7.545229   0.548605 H        1 UNL1     0.0428
     86 H         2.944754   -5.14871   1.169865 H        1 UNL1     0.0317
     87 H         2.052893   -4.583993   -0.167308 H        1 UNL1     0.0317
     88 H         1.203131   -9.026916   -1.449452 H        1 UNL1     0.0429
     89 H         0.009987   -8.201775   -0.443576 H        1 UNL1     0.0429
     90 H         -0.282048   -6.851398   -2.856284 H        1 UNL1     0.0308
     91 H         0.418285   -9.758369   -3.573721 H        1 UNL1     0.0233
     92 H         -0.3036   -8.559958   -4.677437 H        1 UNL1     0.0233
     93 H         1.327949   -8.340553   -4.082026 H        1 UNL1     0.0233
     94 H         -2.25311   -8.378357   -3.227879 H        1 UNL1     0.0233
     95 H         -1.692289   -9.313053   -1.832833 H        1 UNL1     0.0233
     96 H         -2.162202   -7.609528   -1.629914 H        1 UNL1     0.0233
     97 H         11.15602   -1.572464   -2.523194 H        1 UNL1     0.0280
     98 H         12.12272   -2.922887   -1.994955 H        1 UNL1     0.0280
     99 H         11.359818   -2.956891   -3.612532 H        1 UNL1     0.0280
     100 H         10.942   -6.198543   -1.537526 H        1 UNL1     0.2922
     101 H         3.351955   -0.496412   3.601138 H        1 UNL1     0.0236
     102 H         4.894791   -1.381719   3.920436 H        1 UNL1     0.0236
     103 H         3.359953   -2.038692   4.398091 H        1 UNL1     0.0236
     104 H         1.590113   -1.047135   3.209825 H        1 UNL1     0.2098
     105 H         0.712488   1.280991   -0.928553 H        1 UNL1     0.0234
     106 H         1.292382   -0.406652   -1.010291 H        1 UNL1     0.0234
     107 H         0.0   -0.0   0.0 H        1 UNL1     0.0234
     108 H         4.239918   1.67557   0.010136 H        1 UNL1     0.2098
     109 H         3.230526   -0.006196   -1.71952 H        1 UNL1     0.0234
     110 H         1.895424   0.184031   -2.900249 H        1 UNL1     0.0234
     111 H         3.531494   0.054374   -3.443674 H        1 UNL1     0.0234
     112 H         -1.632804   4.861977   -1.05276 H        1 UNL1     0.0342
     113 H         0.1531   5.082811   -1.05691 H        1 UNL1     0.0342
     114 H         -0.753209   5.105248   -2.572189 H        1 UNL1     0.0342
     115 H         2.338756   5.537112   -0.699123 H        1 UNL1     0.0234
     116 H         3.07506   5.036946   0.826811 H        1 UNL1     0.0234
     117 H         3.848378   4.754699   -0.746709 H        1 UNL1     0.0234
     118 H         7.414919   0.254469   -3.717528 H        1 UNL1     0.0309
     119 H         7.516276   -1.52976   -3.837181 H        1 UNL1     0.0309
     120 H         6.036199   -0.722343   -3.368561 H        1 UNL1     0.0309
     121 H         6.826526   3.606065   -1.509552 H        1 UNL1     0.0524
     122 H         5.989734   4.720779   -2.597692 H        1 UNL1     0.0524
     123 H         6.031094   5.06065   -0.849401 H        1 UNL1     0.0524
@<TRIPOS>BOND
     1     1     2    1
     2     1    42    1
     3     2     3    2
     4     3     4    1
     5     4     5    2
     6     5     7    1
     7     6    75    1
     8     6    76    1
     9     6    77    1
    10     7     9   am
    11     9    10    1
    12    10    11    2
    13    10    43    1
    14    11    14    1
    15    11    15    1
    16    12    13   ar
    17    12    27   ar
    18    12    43    1
    19    13    14    1
    20    13    30   ar
    21    14    17    2
    22    15    16    1
    23    16    17    1
    24    16    18    1
    25    16    22    1
    26    18    19    1
    27    19    20    1
    28    20    21    1
    29    21    22    1
    30    23    24    1
    31    23    88    1
    32    23    89    1
    33    24    25    1
    34    24    26    1
    35    24    90    1
    36    25    91    1
    37    25    92    1
    38    25    93    1
    39    26    94    1
    40    26    95    1
    41    26    96    1
    42    27    28   ar
    43    28    29   ar
    44    29    30   ar
    45    29    31    1
    46    30    33    1
    47    31    32    1
    48    32    33    1
    49    32    35    1
    50    34    97    1
    51    34    98    1
    52    34    99    1
    53    35    61    1
    54    36    37    1
    55    36    60    1
    56    37    38    1
    57    38    39    1
    58    39    40    1
    59    40    41    1
    60    41    42    1
    61    45   100    1
    62    47   101    1
    63    47   102    1
    64    47   103    1
    65    48   104    1
    66    49   105    1
    67    49   106    1
    68    49   107    1
    69    50   108    1
    70    51    59    1
    71    52   109    1
    72    52   110    1
    73    52   111    1
    74    53    54    1
    75    54    55    2
    76    54    56    1
    77    56   112    1
    78    56   113    1
    79    56   114    1
    80    57   115    1
    81    57   116    1
    82    57   117    1
    83    58   118    1
    84    58   119    1
    85    58   120    1
    86    59   121    1
    87    59   122    1
    88    59   123    1
    89    60    61    2
    90     1    47    1
    91     1    62    1
    92     2    63    1
    93     3    64    1
    94     4    65    1
    95     5     6    1
    96     7     8    2
    97     9    78    1
    98    15    79    1
    99    18    80    1
   100    18    81    1
   101    19    82    1
   102    19    83    1
   103    20    23    1
   104    21    84    1
   105    21    85    1
   106    22    86    1
   107    22    87    1
   108    27    45    1
   109    28    34    1
   110    32    58    1
   111    33    46    2
   112    36    51    1
   113    36    66    1
   114    37    52    1
   115    37    67    1
   116    38    53    1
   117    38    68    1
   118    42    48    1
   119    42    72    1
   120    43    44    2
   121    60    73    1
   122    61    74    1
   123    39    69    1
   124    39    57    1
   125    40    70    1
   126    40    50    1
   127    41    71    1
   128    41    49    1
