@<TRIPOS>MOLECULE
*****
 123 128 0 0 0
SMALL
GASTEIGER

@<TRIPOS>ATOM
     1 C         5.11418   1.927026   0.361942 C.3        1 UNL1     0.0009
     2 C         6.546246   2.665742   -0.554859 C.2        1 UNL1     -0.0787
     3 C         7.841879   2.524044   -1.185179 C.2        1 UNL1     -0.0649
     4 C         8.702987   3.685281   -2.066301 C.2        1 UNL1     -0.0542
     5 C         9.732447   3.893162   -3.01713 C.2        1 UNL1     0.0115
     6 C         10.890678   3.200755   -3.786804 C.3        1 UNL1     -0.0348
     7 C         9.803178   5.297869   -3.790941 C.2        1 UNL1     0.2441
     8 O         10.600242   6.178856   -3.49926 O.2        1 UNL1     -0.2702
     9 N         9.069409   5.347951   -4.98895 N.am        1 UNL1     -0.2772
     10 C         7.772373   5.735176   -4.741813 C.2        1 UNL1     0.1049
     11 C         6.944949   4.782723   -4.351398 C.2        1 UNL1     0.0801
     12 C         6.410744   7.46075   -3.547788 C.ar        1 UNL1     0.0753
     13 C         5.670953   6.373223   -2.983339 C.ar        1 UNL1     0.0305
     14 C         5.830679   5.004841   -3.470238 C.2        1 UNL1     0.0924
     15 N         7.102166   3.447879   -4.352572 N.pl3        1 UNL1     -0.3170
     16 C         5.841554   2.856644   -3.989872 C.3        1 UNL1     0.1275
     17 N         5.164955   3.90249   -3.137731 N.2        1 UNL1     -0.2557
     18 C         5.010416   2.746422   -5.264533 C.3        1 UNL1     0.0016
     19 C         5.801632   1.955577   -6.29416 C.3        1 UNL1     0.0026
     20 N         6.097673   0.639089   -5.746212 N.3        1 UNL1     -0.3018
     21 C         6.842222   0.643565   -4.485261 C.3        1 UNL1     0.0026
     22 C         6.027135   1.439291   -3.464306 C.3        1 UNL1     0.0016
     23 C         6.581553   -0.292065   -6.74594 C.3        1 UNL1     0.0012
     24 C         5.450266   -0.683744   -7.709544 C.3        1 UNL1     -0.0339
     25 C         5.524974   0.117376   -9.019767 C.3        1 UNL1     -0.0615
     26 C         5.480163   -2.180291   -7.9669 C.3        1 UNL1     -0.0615
     27 C         6.166142   8.776838   -3.16282 C.ar        1 UNL1     0.1347
     28 C         5.183791   9.131219   -2.255378 C.ar        1 UNL1     0.0342
     29 C         4.501394   8.040195   -1.676444 C.ar        1 UNL1     0.1435
     30 C         4.760499   6.714228   -2.02558 C.ar        1 UNL1     0.0774
     31 O         3.442795   8.22521   -0.85782 O.3        1 UNL1     -0.4436
     32 C         2.753487   6.965981   -0.866129 C.3        1 UNL1     0.3143
     33 C         3.79966   5.9443   -1.2635 C.2        1 UNL1     0.2504
     34 C         4.696547   10.527262   -1.983795 C.3        1 UNL1     -0.0327
     35 O         2.379776   6.676001   0.486463 O.2        1 UNL1     -0.4528
     36 C         -0.808462   4.627617   0.268871 C.3        1 UNL1     0.0854
     37 C         -1.067336   3.263836   -0.479866 C.3        1 UNL1     0.0236
     38 C         -1.651633   2.087787   0.440596 C.3        1 UNL1     0.1131
     39 C         -0.936911   1.730608   1.805831 C.3        1 UNL1     0.0200
     40 C         0.726277   1.633824   1.888738 C.3        1 UNL1     0.0661
     41 C         1.724631   0.759449   0.832155 C.3        1 UNL1     0.0091
     42 C         3.432927   1.098035   0.255537 C.3        1 UNL1     0.0661
     43 C         7.385492   7.148832   -4.62242 C.2        1 UNL1     0.2131
     44 O         7.77664   7.96737   -5.434662 O.2        1 UNL1     -0.2851
     45 O         6.961534   9.772307   -3.726586 O.3        1 UNL1     -0.5056
     46 O         3.842076   4.764933   -0.993042 O.2        1 UNL1     -0.2836
     47 C         5.494769   1.677968   1.846228 C.3        1 UNL1     -0.0566
     48 O         3.91357   -0.281937   0.508073 O.3        1 UNL1     -0.3909
     49 C         0.918683   0.362863   -0.384669 C.3        1 UNL1     -0.0577
     50 O         1.290013   2.904186   2.145848 O.3        1 UNL1     -0.3910
     51 O         -0.952984   4.59777   1.670889 O.3        1 UNL1     -0.3753
     52 C         0.001218   2.997578   -1.589933 C.3        1 UNL1     -0.0564
     53 O         -2.212932   0.936051   -0.340924 O.3        1 UNL1     -0.4608
     54 C         -2.422092   -0.327996   0.145252 C.2        1 UNL1     0.3042
     55 O         -1.820481   -1.355934   -0.163365 O.2        1 UNL1     -0.2512
     56 C         -3.478422   -0.395184   1.211256 C.3        1 UNL1     0.0332
     57 C         -1.6963   2.522768   2.96944 C.3        1 UNL1     -0.0567
     58 C         1.692409   7.055552   -1.987566 C.3        1 UNL1     0.0210
     59 C         -1.307549   5.846296   2.263621 C.3        1 UNL1     0.0372
     60 C         0.50904   5.259781   -0.013471 C.2        1 UNL1     -0.0208
     61 C         1.395522   5.816546   0.812911 C.2        1 UNL1     0.0882
     62 H         4.613366   2.902039   0.326657 H        1 UNL1     0.0365
     63 H         6.253021   3.717402   -0.577192 H        1 UNL1     0.0576
     64 H         8.326426   1.550211   -1.28504 H        1 UNL1     0.0615
     65 H         8.187993   4.621881   -1.835985 H        1 UNL1     0.0622
     66 H         -1.565055   5.313539   -0.137485 H        1 UNL1     0.0645
     67 H         -1.928903   3.477592   -1.136044 H        1 UNL1     0.0362
     68 H         -2.615052   2.537953   0.724669 H        1 UNL1     0.0741
     69 H         -1.247618   0.740839   2.112795 H        1 UNL1     0.0359
     70 H         0.837951   1.083483   2.842527 H        1 UNL1     0.0600
     71 H         1.78494   -0.203713   1.375881 H        1 UNL1     0.0348
     72 H         3.297803   1.693879   1.169882 H        1 UNL1     0.0602
     73 H         0.640802   5.338217   -1.064058 H        1 UNL1     0.0628
     74 H         1.363788   5.731252   1.899629 H        1 UNL1     0.1022
     75 H         10.94069   2.115886   -3.526818 H        1 UNL1     0.0279
     76 H         10.807371   3.178209   -4.871064 H        1 UNL1     0.0279
     77 H         11.883159   3.547197   -3.463291 H        1 UNL1     0.0279
     78 H         9.037676   4.421599   -5.409594 H        1 UNL1     0.1553
     79 H         7.788473   2.968378   -4.90574 H        1 UNL1     0.1484
     80 H         4.057815   2.256695   -5.028978 H        1 UNL1     0.0317
     81 H         4.763987   3.738451   -5.657982 H        1 UNL1     0.0317
     82 H         6.723631   2.478334   -6.588362 H        1 UNL1     0.0428
     83 H         5.191472   1.89054   -7.195562 H        1 UNL1     0.0428
     84 H         6.981872   -0.35293   -4.05479 H        1 UNL1     0.0428
     85 H         7.864918   1.023538   -4.615757 H        1 UNL1     0.0428
     86 H         6.532989   1.309586   -2.525543 H        1 UNL1     0.0317
     87 H         5.057302   0.954274   -3.299141 H        1 UNL1     0.0317
     88 H         7.373783   0.205175   -7.320761 H        1 UNL1     0.0429
     89 H         7.030264   -1.179148   -6.280627 H        1 UNL1     0.0429
     90 H         4.484703   -0.481337   -7.231075 H        1 UNL1     0.0308
     91 H         6.491392   -0.018429   -9.514433 H        1 UNL1     0.0233
     92 H         4.727093   -0.183697   -9.702665 H        1 UNL1     0.0233
     93 H         5.398889   1.194805   -8.858258 H        1 UNL1     0.0233
     94 H         4.806802   -2.435098   -8.792427 H        1 UNL1     0.0233
     95 H         6.490392   -2.491015   -8.247702 H        1 UNL1     0.0233
     96 H         5.170716   -2.743611   -7.082094 H        1 UNL1     0.0233
     97 H         3.885282   10.542494   -1.262097 H        1 UNL1     0.0280
     98 H         5.484387   11.166183   -1.563863 H        1 UNL1     0.0280
     99 H         4.333925   10.980425   -2.920941 H        1 UNL1     0.0280
     100 H         6.482539   10.468674   -4.140422 H        1 UNL1     0.2922
     101 H         4.630141   1.295569   2.388303 H        1 UNL1     0.0236
     102 H         5.926924   2.55298   2.330563 H        1 UNL1     0.0236
     103 H         6.260928   0.891698   1.950982 H        1 UNL1     0.0236
     104 H         4.314844   -0.296096   1.398999 H        1 UNL1     0.2098
     105 H         0.694941   1.183175   -1.062046 H        1 UNL1     0.0234
     106 H         1.318548   -0.48626   -0.938768 H        1 UNL1     0.0234
     107 H         0.0   -0.0   0.0 H        1 UNL1     0.0234
     108 H         1.103559   3.466787   1.36965 H        1 UNL1     0.2098
     109 H         1.022634   2.967878   -1.185531 H        1 UNL1     0.0234
     110 H         -0.192409   2.08483   -2.163642 H        1 UNL1     0.0234
     111 H         0.004492   3.792533   -2.347549 H        1 UNL1     0.0234
     112 H         -3.580613   -1.424014   1.5696 H        1 UNL1     0.0342
     113 H         -3.272985   0.286849   2.034949 H        1 UNL1     0.0342
     114 H         -4.436784   -0.097643   0.763844 H        1 UNL1     0.0342
     115 H         -2.762842   2.262276   3.012101 H        1 UNL1     0.0234
     116 H         -1.278086   2.358393   3.964491 H        1 UNL1     0.0234
     117 H         -1.749587   3.611677   2.798038 H        1 UNL1     0.0234
     118 H         0.772087   7.562241   -1.648037 H        1 UNL1     0.0309
     119 H         2.062289   7.551918   -2.890347 H        1 UNL1     0.0309
     120 H         1.335065   6.07073   -2.307779 H        1 UNL1     0.0309
     121 H         -0.484441   6.539023   2.090479 H        1 UNL1     0.0524
     122 H         -2.211302   6.284077   1.807972 H        1 UNL1     0.0524
     123 H         -1.475001   5.722127   3.329752 H        1 UNL1     0.0524
@<TRIPOS>BOND
     1     1     2    1
     2     1    42    1
     3     2     3    2
     4     3     4    1
     5     4     5    2
     6     5     7    1
     7     6    75    1
     8     6    76    1
     9     6    77    1
    10     7     9   am
    11     9    10    1
    12    10    11    2
    13    10    43    1
    14    11    14    1
    15    11    15    1
    16    12    13   ar
    17    12    27   ar
    18    12    43    1
    19    13    14    1
    20    13    30   ar
    21    14    17    2
    22    15    16    1
    23    16    17    1
    24    16    18    1
    25    16    22    1
    26    18    19    1
    27    19    20    1
    28    20    21    1
    29    21    22    1
    30    23    24    1
    31    23    88    1
    32    23    89    1
    33    24    25    1
    34    24    26    1
    35    24    90    1
    36    25    91    1
    37    25    92    1
    38    25    93    1
    39    26    94    1
    40    26    95    1
    41    26    96    1
    42    27    28   ar
    43    28    29   ar
    44    29    30   ar
    45    29    31    1
    46    30    33    1
    47    31    32    1
    48    32    33    1
    49    32    35    1
    50    34    97    1
    51    34    98    1
    52    34    99    1
    53    35    61    1
    54    36    37    1
    55    36    60    1
    56    37    38    1
    57    38    39    1
    58    39    40    1
    59    40    41    1
    60    41    42    1
    61    45   100    1
    62    47   101    1
    63    47   102    1
    64    47   103    1
    65    48   104    1
    66    49   105    1
    67    49   106    1
    68    49   107    1
    69    50   108    1
    70    51    59    1
    71    52   109    1
    72    52   110    1
    73    52   111    1
    74    53    54    1
    75    54    55    2
    76    54    56    1
    77    56   112    1
    78    56   113    1
    79    56   114    1
    80    57   115    1
    81    57   116    1
    82    57   117    1
    83    58   118    1
    84    58   119    1
    85    58   120    1
    86    59   121    1
    87    59   122    1
    88    59   123    1
    89    60    61    2
    90     1    47    1
    91     1    62    1
    92     2    63    1
    93     3    64    1
    94     4    65    1
    95     5     6    1
    96     7     8    2
    97     9    78    1
    98    15    79    1
    99    18    80    1
   100    18    81    1
   101    19    82    1
   102    19    83    1
   103    20    23    1
   104    21    84    1
   105    21    85    1
   106    22    86    1
   107    22    87    1
   108    27    45    1
   109    28    34    1
   110    32    58    1
   111    33    46    2
   112    36    51    1
   113    36    66    1
   114    37    52    1
   115    37    67    1
   116    38    53    1
   117    38    68    1
   118    42    48    1
   119    42    72    1
   120    43    44    2
   121    60    73    1
   122    61    74    1
   123    39    69    1
   124    39    57    1
   125    40    70    1
   126    40    50    1
   127    41    71    1
   128    41    49    1
