@<TRIPOS>MOLECULE
*****
 123 128 0 0 0
SMALL
GASTEIGER

@<TRIPOS>ATOM
     1 C         0.316408   3.948763   -3.765137 C.3        1 UNL1     0.0009
     2 C         0.717836   4.330928   -5.534273 C.2        1 UNL1     -0.0787
     3 C         1.609153   4.893628   -6.526729 C.2        1 UNL1     -0.0649
     4 C         1.462772   4.830037   -8.212222 C.2        1 UNL1     -0.0542
     5 C         2.154793   4.946315   -9.442939 C.2        1 UNL1     0.0115
     6 C         3.499724   5.372979   -10.092894 C.3        1 UNL1     -0.0348
     7 C         1.486192   4.339935   -10.770442 C.2        1 UNL1     0.2441
     8 O         0.926906   5.032313   -11.60969 O.2        1 UNL1     -0.2702
     9 N         1.812353   2.99819   -11.034055 N.am        1 UNL1     -0.2772
     10 C         0.928091   2.155636   -10.400411 C.2        1 UNL1     0.1049
     11 C         1.178288   1.898386   -9.129409 C.2        1 UNL1     0.0801
     12 C         -1.513883   1.748666   -10.041982 C.ar        1 UNL1     0.0753
     13 C         -1.218068   1.685719   -8.643004 C.ar        1 UNL1     0.0305
     14 C         0.157511   1.627648   -8.153657 C.2        1 UNL1     0.0924
     15 N         2.274628   2.155475   -8.395603 N.pl3        1 UNL1     -0.3170
     16 C         2.105955   1.51958   -7.115978 C.3        1 UNL1     0.1275
     17 N         0.611248   1.468284   -6.913635 N.2        1 UNL1     -0.2557
     18 C         2.562811   0.071743   -7.266821 C.3        1 UNL1     0.0016
     19 C         3.990993   0.06424   -7.788195 C.3        1 UNL1     0.0026
     20 N         4.836486   0.78506   -6.846607 N.3        1 UNL1     -0.3018
     21 C         4.438881   2.170603   -6.588635 C.3        1 UNL1     0.0026
     22 C         3.003041   2.154113   -6.061391 C.3        1 UNL1     0.0016
     23 C         6.250946   0.583493   -7.090155 C.3        1 UNL1     0.0012
     24 C         6.519771   -0.861803   -7.538047 C.3        1 UNL1     -0.0339
     25 C         6.599759   -0.970244   -9.06968 C.3        1 UNL1     -0.0615
     26 C         7.780712   -1.386847   -6.873865 C.3        1 UNL1     -0.0615
     27 C         -2.825476   1.681852   -10.50607 C.ar        1 UNL1     0.1347
     28 C         -3.916838   1.512622   -9.672798 C.ar        1 UNL1     0.0342
     29 C         -3.605727   1.502295   -8.296474 C.ar        1 UNL1     0.1435
     30 C         -2.299961   1.60459   -7.81509 C.ar        1 UNL1     0.0774
     31 O         -4.545617   1.235612   -7.363472 O.3        1 UNL1     -0.4436
     32 C         -3.800858   0.850337   -6.198238 C.3        1 UNL1     0.3143
     33 C         -2.431758   1.47412   -6.378994 C.2        1 UNL1     0.2504
     34 C         -5.31683   1.182051   -10.109653 C.3        1 UNL1     -0.0327
     35 O         -4.407936   1.495648   -5.072057 O.2        1 UNL1     -0.4528
     36 C         -3.814027   -0.803226   -2.110547 C.3        1 UNL1     0.0854
     37 C         -2.452609   -1.345956   -1.527875 C.3        1 UNL1     0.0236
     38 C         -2.218208   -1.048938   0.030515 C.3        1 UNL1     0.1131
     39 C         -2.398443   0.421424   0.585332 C.3        1 UNL1     0.0200
     40 C         -1.783821   1.723494   -0.256864 C.3        1 UNL1     0.0661
     41 C         -0.204009   1.861094   -0.859249 C.3        1 UNL1     0.0091
     42 C         0.429433   2.715483   -2.353965 C.3        1 UNL1     0.0661
     43 C         -0.371475   1.797417   -10.987914 C.2        1 UNL1     0.2131
     44 O         -0.450955   1.465892   -12.156893 O.2        1 UNL1     -0.2851
     45 O         -3.030411   1.796327   -11.879509 O.3        1 UNL1     -0.5056
     46 O         -1.637867   1.808673   -5.52831 O.2        1 UNL1     -0.2836
     47 C         -0.126907   5.237742   -3.022178 C.3        1 UNL1     -0.0566
     48 O         1.542435   3.385354   -1.638693 O.3        1 UNL1     -0.3909
     49 C         0.454893   0.500397   -0.816269 C.3        1 UNL1     -0.0577
     50 O         -2.710408   2.178392   -1.222383 O.3        1 UNL1     -0.3910
     51 O         -4.569349   0.017721   -1.248592 O.3        1 UNL1     -0.3753
     52 C         -1.294562   -1.255637   -2.574641 C.3        1 UNL1     -0.0564
     53 O         -1.110953   -1.860644   0.636688 O.3        1 UNL1     -0.4608
     54 C         0.122479   -1.381793   0.993445 C.2        1 UNL1     0.3042
     55 O         0.79399   -0.53546   0.40469 O.2        1 UNL1     -0.2512
     56 C         0.637294   -1.949426   2.285525 C.3        1 UNL1     0.0332
     57 C         -3.886079   0.540889   1.16052 C.3        1 UNL1     -0.0567
     58 C         -3.659823   -0.688504   -6.258293 C.3        1 UNL1     0.0210
     59 C         -5.0704   1.212868   -1.845617 C.3        1 UNL1     0.0372
     60 C         -3.699075   -0.0763   -3.404195 C.2        1 UNL1     -0.0208
     61 C         -4.251929   1.069708   -3.803899 C.2        1 UNL1     0.0882
     62 H         -0.600743   3.45002   -4.100997 H        1 UNL1     0.0365
     63 H         -0.193128   3.987054   -6.028605 H        1 UNL1     0.0576
     64 H         2.589863   5.290953   -6.255717 H        1 UNL1     0.0615
     65 H         0.432693   4.500093   -8.372084 H        1 UNL1     0.0622
     66 H         -4.402649   -1.706602   -2.323809 H        1 UNL1     0.0645
     67 H         -2.58014   -2.442446   -1.52556 H        1 UNL1     0.0362
     68 H         -3.053934   -1.625605   0.455416 H        1 UNL1     0.0741
     69 H         -1.894939   0.497389   1.539858 H        1 UNL1     0.0359
     70 H         -1.810919   2.494137   0.537136 H        1 UNL1     0.0600
     71 H         0.28569   2.366481   -0.003833 H        1 UNL1     0.0348
     72 H         -0.557187   3.155514   -2.148368 H        1 UNL1     0.0602
     73 H         -3.168582   -0.679933   -4.098064 H        1 UNL1     0.0628
     74 H         -4.76082   1.772313   -3.143133 H        1 UNL1     0.1022
     75 H         4.149763   5.889194   -9.345896 H        1 UNL1     0.0279
     76 H         4.142723   4.570953   -10.448389 H        1 UNL1     0.0279
     77 H         3.374785   6.159327   -10.851674 H        1 UNL1     0.0279
     78 H         2.741884   2.794768   -10.672575 H        1 UNL1     0.1553
     79 H         3.175947   2.351518   -8.790729 H        1 UNL1     0.1484
     80 H         2.488841   -0.429671   -6.294259 H        1 UNL1     0.0317
     81 H         1.907422   -0.475954   -7.952492 H        1 UNL1     0.0317
     82 H         4.058951   0.500699   -8.795567 H        1 UNL1     0.0428
     83 H         4.29616   -0.977654   -7.89008 H        1 UNL1     0.0428
     84 H         5.041149   2.66378   -5.81931 H        1 UNL1     0.0428
     85 H         4.568404   2.805081   -7.476316 H        1 UNL1     0.0428
     86 H         2.793788   3.163637   -5.759626 H        1 UNL1     0.0317
     87 H         2.955916   1.592927   -5.120143 H        1 UNL1     0.0317
     88 H         6.558817   1.262196   -7.896302 H        1 UNL1     0.0429
     89 H         6.84852   0.841837   -6.206448 H        1 UNL1     0.0429
     90 H         5.705047   -1.504818   -7.184539 H        1 UNL1     0.0308
     91 H         6.847706   -1.988522   -9.383901 H        1 UNL1     0.0233
     92 H         5.65324   -0.673981   -9.527872 H        1 UNL1     0.0233
     93 H         7.365398   -0.310555   -9.49564 H        1 UNL1     0.0233
     94 H         8.443936   -0.55535   -6.61198 H        1 UNL1     0.0233
     95 H         7.524589   -1.916923   -5.952246 H        1 UNL1     0.0233
     96 H         8.325   -2.068461   -7.533502 H        1 UNL1     0.0233
     97 H         -5.478646   1.403017   -11.160472 H        1 UNL1     0.0280
     98 H         -5.547428   0.115637   -9.987821 H        1 UNL1     0.0280
     99 H         -6.036786   1.770758   -9.51789 H        1 UNL1     0.0280
     100 H         -3.70917   2.400142   -12.125102 H        1 UNL1     0.2922
     101 H         -0.58498   4.973727   -2.069224 H        1 UNL1     0.0236
     102 H         -0.77213   5.878169   -3.622614 H        1 UNL1     0.0236
     103 H         0.730924   5.87636   -2.752947 H        1 UNL1     0.0236
     104 H         1.256873   4.298028   -1.437572 H        1 UNL1     0.2098
     105 H         0.297032   -0.103356   -1.706423 H        1 UNL1     0.0234
     106 H         1.512205   0.514582   -0.552037 H        1 UNL1     0.0234
     107 H         0.0   0.0   0.0 H        1 UNL1     0.0234
     108 H         -2.709676   1.530403   -1.953052 H        1 UNL1     0.2098
     109 H         -0.39543   -1.796521   -2.247966 H        1 UNL1     0.0234
     110 H         -1.587872   -1.601023   -3.571848 H        1 UNL1     0.0234
     111 H         -0.974785   -0.217515   -2.735861 H        1 UNL1     0.0234
     112 H         1.626715   -1.536951   2.505197 H        1 UNL1     0.0342
     113 H         -0.050488   -1.776167   3.111831 H        1 UNL1     0.0342
     114 H         0.744804   -3.036111   2.164191 H        1 UNL1     0.0342
     115 H         -4.254429   -0.420895   1.543246 H        1 UNL1     0.0234
     116 H         -3.995094   1.27603   1.960353 H        1 UNL1     0.0234
     117 H         -4.640245   0.765215   0.386664 H        1 UNL1     0.0234
     118 H         -3.258036   -1.03048   -7.228152 H        1 UNL1     0.0309
     119 H         -3.04209   -1.095137   -5.451288 H        1 UNL1     0.0309
     120 H         -4.625027   -1.202081   -6.189548 H        1 UNL1     0.0309
     121 H         -6.132742   1.277794   -1.612014 H        1 UNL1     0.0524
     122 H         -4.585791   2.117304   -1.441652 H        1 UNL1     0.0524
     123 H         -4.924241   1.185302   -2.921708 H        1 UNL1     0.0524
@<TRIPOS>BOND
     1     1     2    1
     2     1    42    1
     3     2     3    2
     4     3     4    1
     5     4     5    2
     6     5     7    1
     7     6    75    1
     8     6    76    1
     9     6    77    1
    10     7     9   am
    11     9    10    1
    12    10    11    2
    13    10    43    1
    14    11    14    1
    15    11    15    1
    16    12    13   ar
    17    12    27   ar
    18    12    43    1
    19    13    14    1
    20    13    30   ar
    21    14    17    2
    22    15    16    1
    23    16    17    1
    24    16    18    1
    25    16    22    1
    26    18    19    1
    27    19    20    1
    28    20    21    1
    29    21    22    1
    30    23    24    1
    31    23    88    1
    32    23    89    1
    33    24    25    1
    34    24    26    1
    35    24    90    1
    36    25    91    1
    37    25    92    1
    38    25    93    1
    39    26    94    1
    40    26    95    1
    41    26    96    1
    42    27    28   ar
    43    28    29   ar
    44    29    30   ar
    45    29    31    1
    46    30    33    1
    47    31    32    1
    48    32    33    1
    49    32    35    1
    50    34    97    1
    51    34    98    1
    52    34    99    1
    53    35    61    1
    54    36    37    1
    55    36    60    1
    56    37    38    1
    57    38    39    1
    58    39    40    1
    59    40    41    1
    60    41    42    1
    61    45   100    1
    62    47   101    1
    63    47   102    1
    64    47   103    1
    65    48   104    1
    66    49   105    1
    67    49   106    1
    68    49   107    1
    69    50   108    1
    70    51    59    1
    71    52   109    1
    72    52   110    1
    73    52   111    1
    74    53    54    1
    75    54    55    2
    76    54    56    1
    77    56   112    1
    78    56   113    1
    79    56   114    1
    80    57   115    1
    81    57   116    1
    82    57   117    1
    83    58   118    1
    84    58   119    1
    85    58   120    1
    86    59   121    1
    87    59   122    1
    88    59   123    1
    89    60    61    2
    90     1    47    1
    91     1    62    1
    92     2    63    1
    93     3    64    1
    94     4    65    1
    95     5     6    1
    96     7     8    2
    97     9    78    1
    98    15    79    1
    99    18    80    1
   100    18    81    1
   101    19    82    1
   102    19    83    1
   103    20    23    1
   104    21    84    1
   105    21    85    1
   106    22    86    1
   107    22    87    1
   108    27    45    1
   109    28    34    1
   110    32    58    1
   111    33    46    2
   112    36    51    1
   113    36    66    1
   114    37    52    1
   115    37    67    1
   116    38    53    1
   117    38    68    1
   118    42    48    1
   119    42    72    1
   120    43    44    2
   121    60    73    1
   122    61    74    1
   123    39    69    1
   124    39    57    1
   125    40    70    1
   126    40    50    1
   127    41    71    1
   128    41    49    1
