@<TRIPOS>MOLECULE
*****
 123 128 0 0 0
SMALL
GASTEIGER

@<TRIPOS>ATOM
     1 C         5.156965   1.771522   0.516425 C.3        1 UNL1     0.0009
     2 C         6.59338   2.586171   -0.326246 C.2        1 UNL1     -0.0787
     3 C         7.878417   2.495404   -0.986919 C.2        1 UNL1     -0.0649
     4 C         8.75323   3.736266   -1.736133 C.2        1 UNL1     -0.0542
     5 C         9.775729   4.035732   -2.669886 C.2        1 UNL1     0.0115
     6 C         10.910347   3.417456   -3.532266 C.3        1 UNL1     -0.0348
     7 C         9.866689   5.520776   -3.27268 C.2        1 UNL1     0.2441
     8 O         10.685207   6.345366   -2.889791 O.2        1 UNL1     -0.2702
     9 N         9.120321   5.726912   -4.445964 N.am        1 UNL1     -0.2772
     10 C         7.834556   6.106958   -4.136619 C.2        1 UNL1     0.1049
     11 C         6.992084   5.130995   -3.850333 C.2        1 UNL1     0.0801
     12 C         6.522973   7.704416   -2.727643 C.ar        1 UNL1     0.0753
     13 C         5.767315   6.572002   -2.285796 C.ar        1 UNL1     0.0305
     14 C         5.89293   5.268312   -2.93361 C.2        1 UNL1     0.0924
     15 N         7.121503   3.802959   -4.011884 N.pl3        1 UNL1     -0.3170
     16 C         5.853153   3.197226   -3.704266 C.3        1 UNL1     0.1275
     17 N         5.208329   4.147302   -2.724837 N.2        1 UNL1     -0.2557
     18 C         5.005226   3.255203   -4.971295 C.3        1 UNL1     0.0016
     19 C         5.767883   2.577147   -6.098319 C.3        1 UNL1     0.0026
     20 N         6.042814   1.199442   -5.714432 N.3        1 UNL1     -0.3018
     21 C         6.80182   1.039784   -4.472341 C.3        1 UNL1     0.0026
     22 C         6.015301   1.724175   -3.353015 C.3        1 UNL1     0.0016
     23 C         6.495652   0.384466   -6.824115 C.3        1 UNL1     0.0012
     24 C         5.345407   0.13187   -7.811479 C.3        1 UNL1     -0.0339
     25 C         5.371094   1.137776   -8.974042 C.3        1 UNL1     -0.0615
     26 C         5.393475   -1.301517   -8.31135 C.3        1 UNL1     -0.0615
     27 C         6.310241   8.969933   -2.186044 C.ar        1 UNL1     0.1347
     28 C         5.34602   9.232889   -1.229392 C.ar        1 UNL1     0.0342
     29 C         4.647834   8.094178   -0.774377 C.ar        1 UNL1     0.1435
     30 C         4.875275   6.814318   -1.281772 C.ar        1 UNL1     0.0774
     31 O         3.602841   8.201017   0.075082 O.3        1 UNL1     -0.4436
     32 C         2.887463   6.965201   -0.072788 C.3        1 UNL1     0.3143
     33 C         3.907515   5.977984   -0.602987 C.2        1 UNL1     0.2504
     34 C         4.891065   10.595921   -0.78751 C.3        1 UNL1     -0.0327
     35 O         2.523466   6.523883   1.240984 O.2        1 UNL1     -0.4528
     36 C         -0.708956   4.57764   0.826644 C.3        1 UNL1     0.0854
     37 C         -1.004752   3.317678   -0.074757 C.3        1 UNL1     0.0236
     38 C         -1.602686   2.052108   0.707901 C.3        1 UNL1     0.1131
     39 C         -0.879809   1.521611   2.011086 C.3        1 UNL1     0.0200
     40 C         0.781856   1.383645   2.058742 C.3        1 UNL1     0.0661
     41 C         1.749545   0.621877   0.892166 C.3        1 UNL1     0.0091
     42 C         3.457729   0.993578   0.335977 C.3        1 UNL1     0.0661
     43 C         7.478543   7.503617   -3.845151 C.2        1 UNL1     0.2131
     44 O         7.877203   8.40514   -4.560038 O.2        1 UNL1     -0.2851
     45 O         7.119579   10.009805   -2.638898 O.3        1 UNL1     -0.5056
     46 O         3.928536   4.774246   -0.47482 O.2        1 UNL1     -0.2836
     47 C         5.549426   1.340659   1.955283 C.3        1 UNL1     -0.0566
     48 O         3.912477   -0.415621   0.416466 O.3        1 UNL1     -0.3909
     49 C         0.921519   0.388216   -0.351726 C.3        1 UNL1     -0.0577
     50 O         1.374805   2.603382   2.456707 O.3        1 UNL1     -0.3910
     51 O         -0.837852   4.38428   2.217122 O.3        1 UNL1     -0.3753
     52 C         0.045137   3.164609   -1.223345 C.3        1 UNL1     -0.0564
     53 O         -2.196794   1.012371   -0.196702 O.3        1 UNL1     -0.4608
     54 C         -2.426545   -0.296206   0.139113 C.2        1 UNL1     0.3042
     55 O         -1.851047   -1.291717   -0.298608 O.2        1 UNL1     -0.2512
     56 C         -3.470155   -0.469045   1.205751 C.3        1 UNL1     0.0332
     57 C         -1.609071   2.184447   3.270848 C.3        1 UNL1     -0.0567
     58 C         1.815585   7.207751   -1.160804 C.3        1 UNL1     0.0210
     59 C         -1.159519   5.560169   2.958526 C.3        1 UNL1     0.0372
     60 C         0.618048   5.213364   0.602868 C.2        1 UNL1     -0.0208
     61 C         1.525402   5.650861   1.476968 C.2        1 UNL1     0.0882
     62 H         4.676147   2.753291   0.603924 H        1 UNL1     0.0365
     63 H         6.321836   3.638492   -0.219699 H        1 UNL1     0.0576
     64 H         8.341435   1.531173   -1.208232 H        1 UNL1     0.0615
     65 H         8.260508   4.648628   -1.389285 H        1 UNL1     0.0622
     66 H         -1.455776   5.321415   0.515029 H        1 UNL1     0.0645
     67 H         -1.869218   3.624411   -0.688902 H        1 UNL1     0.0362
     68 H         -2.553194   2.483824   1.056725 H        1 UNL1     0.0741
     69 H         -1.207449   0.50856   2.202891 H        1 UNL1     0.0359
     70 H         0.893085   0.721872   2.938938 H        1 UNL1     0.0600
     71 H         1.796104   -0.400027   1.317022 H        1 UNL1     0.0348
     72 H         3.345594   1.479103   1.316286 H        1 UNL1     0.0602
     73 H         0.73926   5.413467   -0.432755 H        1 UNL1     0.0628
     74 H         1.504464   5.437732   2.546255 H        1 UNL1     0.1022
     75 H         10.959312   2.312055   -3.381512 H        1 UNL1     0.0279
     76 H         10.800735   3.502125   -4.611101 H        1 UNL1     0.0279
     77 H         11.912662   3.726064   -3.200863 H        1 UNL1     0.0279
     78 H         9.064484   4.857859   -4.972942 H        1 UNL1     0.1553
     79 H         7.791258   3.379419   -4.627493 H        1 UNL1     0.1484
     80 H         4.04544   2.759409   -4.782179 H        1 UNL1     0.0317
     81 H         4.774936   4.291501   -5.240931 H        1 UNL1     0.0317
     82 H         6.697084   3.113288   -6.341322 H        1 UNL1     0.0428
     83 H         5.146125   2.631393   -6.992481 H        1 UNL1     0.0428
     84 H         6.925697   -0.003288   -4.164988 H        1 UNL1     0.0428
     85 H         7.830616   1.412795   -4.571133 H        1 UNL1     0.0428
     86 H         6.529167   1.474174   -2.443384 H        1 UNL1     0.0317
     87 H         5.037572   1.241748   -3.232987 H        1 UNL1     0.0317
     88 H         7.291347   0.931102   -7.346947 H        1 UNL1     0.0429
     89 H         6.931178   -0.56008   -6.473511 H        1 UNL1     0.0429
     90 H         4.389901   0.232997   -7.28328 H        1 UNL1     0.0308
     91 H         6.323585   1.100635   -9.511148 H        1 UNL1     0.0233
     92 H         4.556425   0.939513   -9.674481 H        1 UNL1     0.0233
     93 H         5.237495   2.172019   -8.634445 H        1 UNL1     0.0233
     94 H         4.702365   -1.432056   -9.15109 H        1 UNL1     0.0233
     95 H         6.400804   -1.540853   -8.663444 H        1 UNL1     0.0233
     96 H         5.11764   -2.008271   -7.523706 H        1 UNL1     0.0233
     97 H         4.092859   10.540872   -0.053298 H        1 UNL1     0.0280
     98 H         5.69845   11.167494   -0.311389 H        1 UNL1     0.0280
     99 H         4.521263   11.161801   -1.658212 H        1 UNL1     0.0280
     100 H         6.650404   10.758969   -2.961776 H        1 UNL1     0.2922
     101 H         4.686573   0.90192   2.455934 H        1 UNL1     0.0236
     102 H         5.994113   2.146786   2.53786 H        1 UNL1     0.0236
     103 H         6.309376   0.541491   1.955506 H        1 UNL1     0.0236
     104 H         4.329023   -0.541614   1.291443 H        1 UNL1     0.2098
     105 H         0.707058   1.287329   -0.923928 H        1 UNL1     0.0234
     106 H         1.297219   -0.396633   -1.008071 H        1 UNL1     0.0234
     107 H         0.0   -0.0   0.0 H        1 UNL1     0.0234
     108 H         1.176644   3.26207   1.763431 H        1 UNL1     0.2098
     109 H         1.068927   3.055021   -0.839215 H        1 UNL1     0.0234
     110 H         -0.180706   2.337956   -1.905535 H        1 UNL1     0.0234
     111 H         0.064907   4.048959   -1.874099 H        1 UNL1     0.0234
     112 H         -3.598681   -1.531907   1.431913 H        1 UNL1     0.0342
     113 H         -3.233221   0.096089   2.105934 H        1 UNL1     0.0342
     114 H         -4.424932   -0.089751   0.81626 H        1 UNL1     0.0342
     115 H         -2.677682   1.931152   3.304033 H        1 UNL1     0.0234
     116 H         -1.175246   1.904571   4.232884 H        1 UNL1     0.0234
     117 H         -1.652567   3.286218   3.224488 H        1 UNL1     0.0234
     118 H         0.910596   7.689575   -0.751114 H        1 UNL1     0.0309
     119 H         2.185678   7.79931   -2.004185 H        1 UNL1     0.0309
     120 H         1.433065   6.274953   -1.589375 H        1 UNL1     0.0309
     121 H         -0.34118   6.267421   2.826344 H        1 UNL1     0.0524
     122 H         -2.080085   6.045762   2.594114 H        1 UNL1     0.0524
     123 H         -1.280683   5.319549   4.010911 H        1 UNL1     0.0524
@<TRIPOS>BOND
     1     1     2    1
     2     1    42    1
     3     2     3    2
     4     3     4    1
     5     4     5    2
     6     5     7    1
     7     6    75    1
     8     6    76    1
     9     6    77    1
    10     7     9   am
    11     9    10    1
    12    10    11    2
    13    10    43    1
    14    11    14    1
    15    11    15    1
    16    12    13   ar
    17    12    27   ar
    18    12    43    1
    19    13    14    1
    20    13    30   ar
    21    14    17    2
    22    15    16    1
    23    16    17    1
    24    16    18    1
    25    16    22    1
    26    18    19    1
    27    19    20    1
    28    20    21    1
    29    21    22    1
    30    23    24    1
    31    23    88    1
    32    23    89    1
    33    24    25    1
    34    24    26    1
    35    24    90    1
    36    25    91    1
    37    25    92    1
    38    25    93    1
    39    26    94    1
    40    26    95    1
    41    26    96    1
    42    27    28   ar
    43    28    29   ar
    44    29    30   ar
    45    29    31    1
    46    30    33    1
    47    31    32    1
    48    32    33    1
    49    32    35    1
    50    34    97    1
    51    34    98    1
    52    34    99    1
    53    35    61    1
    54    36    37    1
    55    36    60    1
    56    37    38    1
    57    38    39    1
    58    39    40    1
    59    40    41    1
    60    41    42    1
    61    45   100    1
    62    47   101    1
    63    47   102    1
    64    47   103    1
    65    48   104    1
    66    49   105    1
    67    49   106    1
    68    49   107    1
    69    50   108    1
    70    51    59    1
    71    52   109    1
    72    52   110    1
    73    52   111    1
    74    53    54    1
    75    54    55    2
    76    54    56    1
    77    56   112    1
    78    56   113    1
    79    56   114    1
    80    57   115    1
    81    57   116    1
    82    57   117    1
    83    58   118    1
    84    58   119    1
    85    58   120    1
    86    59   121    1
    87    59   122    1
    88    59   123    1
    89    60    61    2
    90     1    47    1
    91     1    62    1
    92     2    63    1
    93     3    64    1
    94     4    65    1
    95     5     6    1
    96     7     8    2
    97     9    78    1
    98    15    79    1
    99    18    80    1
   100    18    81    1
   101    19    82    1
   102    19    83    1
   103    20    23    1
   104    21    84    1
   105    21    85    1
   106    22    86    1
   107    22    87    1
   108    27    45    1
   109    28    34    1
   110    32    58    1
   111    33    46    2
   112    36    51    1
   113    36    66    1
   114    37    52    1
   115    37    67    1
   116    38    53    1
   117    38    68    1
   118    42    48    1
   119    42    72    1
   120    43    44    2
   121    60    73    1
   122    61    74    1
   123    39    69    1
   124    39    57    1
   125    40    70    1
   126    40    50    1
   127    41    71    1
   128    41    49    1
