@<TRIPOS>MOLECULE
*****
 123 128 0 0 0
SMALL
GASTEIGER

@<TRIPOS>ATOM
     1 C         5.166941   1.749752   0.490268 C.3        1 UNL1     0.0009
     2 C         6.60321   2.556398   -0.360314 C.2        1 UNL1     -0.0787
     3 C         7.884915   2.458666   -1.026442 C.2        1 UNL1     -0.0649
     4 C         8.761881   3.694183   -1.781945 C.2        1 UNL1     -0.0542
     5 C         9.781572   3.987301   -2.720769 C.2        1 UNL1     0.0115
     6 C         10.90965   3.362334   -3.586897 C.3        1 UNL1     -0.0348
     7 C         9.876419   5.470744   -3.326896 C.2        1 UNL1     0.2441
     8 O         10.700239   6.292463   -2.949238 O.2        1 UNL1     -0.2702
     9 N         9.125813   5.677873   -4.497297 N.am        1 UNL1     -0.2772
     10 C         7.843107   6.064196   -4.183063 C.2        1 UNL1     0.1049
     11 C         6.997612   5.092524   -3.891148 C.2        1 UNL1     0.0801
     12 C         6.544786   7.670186   -2.771506 C.ar        1 UNL1     0.0753
     13 C         5.786098   6.541988   -2.324104 C.ar        1 UNL1     0.0305
     14 C         5.903117   5.236488   -2.969882 C.2        1 UNL1     0.0924
     15 N         7.120467   3.763616   -4.050636 N.pl3        1 UNL1     -0.3170
     16 C         5.850827   3.164091   -3.736254 C.3        1 UNL1     0.1275
     17 N         5.21451   4.118923   -2.755886 N.2        1 UNL1     -0.2557
     18 C         4.997597   3.223326   -4.999659 C.3        1 UNL1     0.0016
     19 C         5.752294   2.539702   -6.128677 C.3        1 UNL1     0.0026
     20 N         6.02284   1.161553   -5.743274 N.3        1 UNL1     -0.3018
     21 C         6.786592   1.000982   -4.504214 C.3        1 UNL1     0.0026
     22 C         6.008028   1.691031   -3.382802 C.3        1 UNL1     0.0016
     23 C         6.467196   0.342412   -6.853319 C.3        1 UNL1     0.0012
     24 C         5.311517   0.09296   -7.835121 C.3        1 UNL1     -0.0339
     25 C         5.346673   1.085436   -9.008924 C.3        1 UNL1     -0.0615
     26 C         5.340782   -1.3464   -8.31903 C.3        1 UNL1     -0.0615
     27 C         6.340016   8.93769   -2.231486 C.ar        1 UNL1     0.1347
     28 C         5.381181   9.206774   -1.271131 C.ar        1 UNL1     0.0342
     29 C         4.679994   8.07205   -0.810802 C.ar        1 UNL1     0.1435
     30 C         4.89956   6.790207   -1.316656 C.ar        1 UNL1     0.0774
     31 O         3.639229   8.185166   0.043025 O.3        1 UNL1     -0.4436
     32 C         2.917771   6.952232   -0.099256 C.3        1 UNL1     0.3143
     33 C         3.931121   5.959484   -0.631973 C.2        1 UNL1     0.2504
     34 C         4.934184   10.572665   -0.829955 C.3        1 UNL1     -0.0327
     35 O         2.557616   6.515101   1.216973 O.2        1 UNL1     -0.4528
     36 C         -0.685139   4.582336   0.820684 C.3        1 UNL1     0.0854
     37 C         -0.990446   3.321927   -0.076913 C.3        1 UNL1     0.0236
     38 C         -1.5905   2.060546   0.710867 C.3        1 UNL1     0.1131
     39 C         -0.864241   1.529419   2.011913 C.3        1 UNL1     0.0200
     40 C         0.796994   1.384214   2.052546 C.3        1 UNL1     0.0661
     41 C         1.756176   0.615896   0.883243 C.3        1 UNL1     0.0091
     42 C         3.463517   0.978963   0.318823 C.3        1 UNL1     0.0661
     43 C         7.494536   7.462981   -3.8928 C.2        1 UNL1     0.2131
     44 O         7.894014   8.361333   -4.611214 O.2        1 UNL1     -0.2851
     45 O         7.151927   9.97309   -2.689946 O.3        1 UNL1     -0.5056
     46 O         3.947403   4.755919   -0.501516 O.2        1 UNL1     -0.2836
     47 C         5.563826   1.319981   1.928239 C.3        1 UNL1     -0.0566
     48 O         3.912402   -0.432069   0.400104 O.3        1 UNL1     -0.3909
     49 C         0.921663   0.383455   -0.356537 C.3        1 UNL1     -0.0577
     50 O         1.397055   2.6021   2.445488 O.3        1 UNL1     -0.3910
     51 O         -0.808768   4.392274   2.212095 O.3        1 UNL1     -0.3753
     52 C         0.053694   3.161975   -1.229794 C.3        1 UNL1     -0.0564
     53 O         -2.193157   1.02167   -0.189059 O.3        1 UNL1     -0.4608
     54 C         -2.42719   -0.285219   0.150352 C.2        1 UNL1     0.3042
     55 O         -1.858016   -1.284117   -0.28792 O.2        1 UNL1     -0.2512
     56 C         -3.46685   -0.451358   1.221903 C.3        1 UNL1     0.0332
     57 C         -1.585027   2.197936   3.27355 C.3        1 UNL1     -0.0567
     58 C         1.842195   7.197377   -1.183032 C.3        1 UNL1     0.0210
     59 C         -1.121987   5.571023   2.952574 C.3        1 UNL1     0.0372
     60 C         0.643655   5.211757   0.589826 C.2        1 UNL1     -0.0208
     61 C         1.556764   5.646957   1.459065 C.2        1 UNL1     0.0882
     62 H         4.690842   2.733803   0.577933 H        1 UNL1     0.0365
     63 H         6.336775   3.610115   -0.254658 H        1 UNL1     0.0576
     64 H         8.342703   1.491968   -1.247876 H        1 UNL1     0.0615
     65 H         8.274714   4.609389   -1.434744 H        1 UNL1     0.0622
     66 H         -1.43004   5.328788   0.510879 H        1 UNL1     0.0645
     67 H         -1.856246   3.631268   -0.687862 H        1 UNL1     0.0362
     68 H         -2.537553   2.497136   1.063006 H        1 UNL1     0.0741
     69 H         -1.195494   0.518203   2.20716 H        1 UNL1     0.0359
     70 H         0.909178   0.723683   2.933553 H        1 UNL1     0.0600
     71 H         1.800101   -0.405368   1.309912 H        1 UNL1     0.0348
     72 H         3.357836   1.466899   1.298653 H        1 UNL1     0.0602
     73 H         0.76119   5.409293   -0.446714 H        1 UNL1     0.0628
     74 H         1.539592   5.43602   2.528854 H        1 UNL1     0.1022
     75 H         10.93579   2.253636   -3.455975 H        1 UNL1     0.0279
     76 H         10.809101   3.46864   -4.664699 H        1 UNL1     0.0279
     77 H         11.915564   3.644969   -3.243452 H        1 UNL1     0.0279
     78 H         9.06383   4.808043   -5.022304 H        1 UNL1     0.1553
     79 H         7.785635   3.335918   -4.668341 H        1 UNL1     0.1484
     80 H         4.036478   2.732145   -4.80535 H        1 UNL1     0.0317
     81 H         4.770691   4.260101   -5.270333 H        1 UNL1     0.0317
     82 H         6.68277   3.071259   -6.376819 H        1 UNL1     0.0428
     83 H         5.126854   2.594939   -7.020206 H        1 UNL1     0.0428
     84 H         6.907224   -0.042023   -4.195343 H        1 UNL1     0.0428
     85 H         7.816577   1.369253   -4.60826 H        1 UNL1     0.0428
     86 H         6.524785   1.440548   -2.474943 H        1 UNL1     0.0317
     87 H         5.028721   1.21316   -3.257528 H        1 UNL1     0.0317
     88 H         7.262984   0.884504   -7.38072 H        1 UNL1     0.0429
     89 H         6.900096   -0.603358   -6.502762 H        1 UNL1     0.0429
     90 H         4.358624   0.211706   -7.305869 H        1 UNL1     0.0308
     91 H         6.299687   1.034988   -9.544014 H        1 UNL1     0.0233
     92 H         4.531606   0.885466   -9.708414 H        1 UNL1     0.0233
     93 H         5.22043   2.124438   -8.681247 H        1 UNL1     0.0233
     94 H         4.646061   -1.477803   -9.155649 H        1 UNL1     0.0233
     95 H         6.344232   -1.602006   -8.670762 H        1 UNL1     0.0233
     96 H         5.058242   -2.040876   -7.522888 H        1 UNL1     0.0233
     97 H         4.134725   10.522675   -0.096745 H        1 UNL1     0.0280
     98 H         5.744518   11.139239   -0.352873 H        1 UNL1     0.0280
     99 H         4.569017   11.140749   -1.701177 H        1 UNL1     0.0280
     100 H         6.684653   10.724206   -3.011041 H        1 UNL1     0.2922
     101 H         4.698117   0.897453   2.437821 H        1 UNL1     0.0236
     102 H         6.025714   2.121902   2.503189 H        1 UNL1     0.0236
     103 H         6.311067   0.508919   1.926684 H        1 UNL1     0.0236
     104 H         4.331919   -0.558276   1.273631 H        1 UNL1     0.2098
     105 H         0.70865   1.282381   -0.929571 H        1 UNL1     0.0234
     106 H         1.291012   -0.40433   -1.01297 H        1 UNL1     0.0234
     107 H         0.0   -0.0   0.0 H        1 UNL1     0.0234
     108 H         1.213175   3.25582   1.743629 H        1 UNL1     0.2098
     109 H         1.080118   3.061013   -0.850356 H        1 UNL1     0.0234
     110 H         -0.172119   2.327378   -1.902253 H        1 UNL1     0.0234
     111 H         0.065708   4.039722   -1.889613 H        1 UNL1     0.0234
     112 H         -3.589946   -1.51232   1.45971 H        1 UNL1     0.0342
     113 H         -3.229779   0.124349   2.115324 H        1 UNL1     0.0342
     114 H         -4.424465   -0.080469   0.831289 H        1 UNL1     0.0342
     115 H         -2.654586   1.949426   3.311929 H        1 UNL1     0.0234
     116 H         -1.14821   1.918035   4.234225 H        1 UNL1     0.0234
     117 H         -1.623872   3.299796   3.225201 H        1 UNL1     0.0234
     118 H         0.940525   7.682584   -0.770029 H        1 UNL1     0.0309
     119 H         2.210748   7.786941   -2.028482 H        1 UNL1     0.0309
     120 H         1.454793   6.265475   -1.609161 H        1 UNL1     0.0309
     121 H         -0.301129   6.274394   2.8154 H        1 UNL1     0.0524
     122 H         -2.041999   6.059958   2.591248 H        1 UNL1     0.0524
     123 H         -1.239578   5.333003   4.005956 H        1 UNL1     0.0524
@<TRIPOS>BOND
     1     1     2    1
     2     1    42    1
     3     2     3    2
     4     3     4    1
     5     4     5    2
     6     5     7    1
     7     6    75    1
     8     6    76    1
     9     6    77    1
    10     7     9   am
    11     9    10    1
    12    10    11    2
    13    10    43    1
    14    11    14    1
    15    11    15    1
    16    12    13   ar
    17    12    27   ar
    18    12    43    1
    19    13    14    1
    20    13    30   ar
    21    14    17    2
    22    15    16    1
    23    16    17    1
    24    16    18    1
    25    16    22    1
    26    18    19    1
    27    19    20    1
    28    20    21    1
    29    21    22    1
    30    23    24    1
    31    23    88    1
    32    23    89    1
    33    24    25    1
    34    24    26    1
    35    24    90    1
    36    25    91    1
    37    25    92    1
    38    25    93    1
    39    26    94    1
    40    26    95    1
    41    26    96    1
    42    27    28   ar
    43    28    29   ar
    44    29    30   ar
    45    29    31    1
    46    30    33    1
    47    31    32    1
    48    32    33    1
    49    32    35    1
    50    34    97    1
    51    34    98    1
    52    34    99    1
    53    35    61    1
    54    36    37    1
    55    36    60    1
    56    37    38    1
    57    38    39    1
    58    39    40    1
    59    40    41    1
    60    41    42    1
    61    45   100    1
    62    47   101    1
    63    47   102    1
    64    47   103    1
    65    48   104    1
    66    49   105    1
    67    49   106    1
    68    49   107    1
    69    50   108    1
    70    51    59    1
    71    52   109    1
    72    52   110    1
    73    52   111    1
    74    53    54    1
    75    54    55    2
    76    54    56    1
    77    56   112    1
    78    56   113    1
    79    56   114    1
    80    57   115    1
    81    57   116    1
    82    57   117    1
    83    58   118    1
    84    58   119    1
    85    58   120    1
    86    59   121    1
    87    59   122    1
    88    59   123    1
    89    60    61    2
    90     1    47    1
    91     1    62    1
    92     2    63    1
    93     3    64    1
    94     4    65    1
    95     5     6    1
    96     7     8    2
    97     9    78    1
    98    15    79    1
    99    18    80    1
   100    18    81    1
   101    19    82    1
   102    19    83    1
   103    20    23    1
   104    21    84    1
   105    21    85    1
   106    22    86    1
   107    22    87    1
   108    27    45    1
   109    28    34    1
   110    32    58    1
   111    33    46    2
   112    36    51    1
   113    36    66    1
   114    37    52    1
   115    37    67    1
   116    38    53    1
   117    38    68    1
   118    42    48    1
   119    42    72    1
   120    43    44    2
   121    60    73    1
   122    61    74    1
   123    39    69    1
   124    39    57    1
   125    40    70    1
   126    40    50    1
   127    41    71    1
   128    41    49    1
