@<TRIPOS>MOLECULE
*****
 123 128 0 0 0
SMALL
GASTEIGER

@<TRIPOS>ATOM
     1 C         2.424176   2.65776   3.870046 C.3        1 UNL1     0.0009
     2 C         3.799721   3.83357   4.273016 C.2        1 UNL1     -0.0787
     3 C         5.185263   4.075494   4.616223 C.2        1 UNL1     -0.0649
     4 C         5.975713   5.56531   4.764527 C.2        1 UNL1     -0.0542
     5 C         7.233971   6.216308   4.772717 C.2        1 UNL1     0.0115
     6 C         8.769349   5.982867   4.810709 C.3        1 UNL1     -0.0348
     7 C         7.288862   7.803753   4.540351 C.2        1 UNL1     0.2441
     8 O         7.445839   8.604626   5.451661 O.2        1 UNL1     -0.2702
     9 N         7.406584   8.198545   3.196315 N.am        1 UNL1     -0.2772
     10 C         6.162601   8.321781   2.621302 C.2        1 UNL1     0.1049
     11 C         5.613546   7.205764   2.177156 C.2        1 UNL1     0.0801
     12 C         3.90413   9.336337   2.978122 C.ar        1 UNL1     0.0753
     13 C         3.363942   8.042472   2.690514 C.ar        1 UNL1     0.0305
     14 C         4.195642   6.968497   2.152087 C.2        1 UNL1     0.0924
     15 N         6.153867   5.98772   2.001223 N.pl3        1 UNL1     -0.3170
     16 C         5.17954   5.167306   1.331997 C.3        1 UNL1     0.1275
     17 N         3.849275   5.752756   1.73865 N.2        1 UNL1     -0.2557
     18 C         5.318251   5.430241   -0.164441 C.3        1 UNL1     0.0016
     19 C         6.756634   5.157778   -0.574818 C.3        1 UNL1     0.0026
     20 N         7.080741   3.774741   -0.253587 N.3        1 UNL1     -0.3018
     21 C         6.91782   3.409035   1.154989 C.3        1 UNL1     0.0026
     22 C         5.464842   3.686444   1.544597 C.3        1 UNL1     0.0016
     23 C         8.313982   3.326881   -0.869363 C.3        1 UNL1     0.0012
     24 C         9.133345   2.481682   0.118585 C.3        1 UNL1     -0.0339
     25 C         10.625165   2.850955   0.07203 C.3        1 UNL1     -0.0615
     26 C         8.565935   2.623157   1.520302 C.3        1 UNL1     -0.0615
     27 C         3.083318   10.388992   3.375994 C.ar        1 UNL1     0.1347
     28 C         1.708294   10.279646   3.482775 C.ar        1 UNL1     0.0342
     29 C         1.204254   8.983807   3.242129 C.ar        1 UNL1     0.1435
     30 C         2.018564   7.910741   2.877917 C.ar        1 UNL1     0.0774
     31 O         -0.12398   8.740974   3.199313 O.3        1 UNL1     -0.4436
     32 C         -0.243003   7.499967   2.48755 C.3        1 UNL1     0.3143
     33 C         1.097742   6.814915   2.658784 C.2        1 UNL1     0.2504
     34 C         0.74405   11.419772   3.657263 C.3        1 UNL1     -0.0327
     35 O         -1.210617   6.702339   3.180921 O.2        1 UNL1     -0.4528
     36 C         -2.848744   4.523728   0.539277 C.3        1 UNL1     0.0854
     37 C         -2.184418   3.501013   -0.460847 C.3        1 UNL1     0.0236
     38 C         -2.783642   2.014568   -0.404671 C.3        1 UNL1     0.1131
     39 C         -2.914955   1.273023   0.986421 C.3        1 UNL1     0.0200
     40 C         -1.675411   1.341297   2.100561 C.3        1 UNL1     0.0661
     41 C         -0.038709   1.024563   1.786721 C.3        1 UNL1     0.0091
     42 C         1.476361   1.738536   2.535192 C.3        1 UNL1     0.0661
     43 C         5.356025   9.544332   2.752294 C.2        1 UNL1     0.2131
     44 O         5.859889   10.638923   2.576998 O.2        1 UNL1     -0.2851
     45 O         3.694148   11.603632   3.680913 O.3        1 UNL1     -0.5056
     46 O         1.346328   5.630123   2.640717 O.2        1 UNL1     -0.2836
     47 C         1.937955   1.935775   5.155467 C.3        1 UNL1     -0.0566
     48 O         2.129591   0.423882   2.74517 O.3        1 UNL1     -0.3909
     49 C         0.176111   1.004317   0.289745 C.3        1 UNL1     -0.0577
     50 O         -1.797642   2.488879   2.91655 O.3        1 UNL1     -0.3910
     51 O         -3.753592   3.975092   1.470771 O.3        1 UNL1     -0.3753
     52 C         -0.655696   3.77464   -0.642741 C.3        1 UNL1     -0.0564
     53 O         -2.395846   1.165892   -1.580124 O.3        1 UNL1     -0.4608
     54 C         -1.266952   0.393709   -1.665351 C.2        1 UNL1     0.3042
     55 O         -0.277304   0.592719   -2.368791 O.2        1 UNL1     -0.2512
     56 C         -1.27171   -0.783524   -0.732176 C.3        1 UNL1     0.0332
     57 C         -4.40664   1.502067   1.516129 C.3        1 UNL1     -0.0567
     58 C         -0.429001   7.866819   0.996794 C.3        1 UNL1     0.0210
     59 C         -3.162729   3.119781   2.448109 C.3        1 UNL1     0.0372
     60 C         -1.890482   5.359542   1.31278 C.2        1 UNL1     -0.0208
     61 C         -1.870756   5.67777   2.607804 C.2        1 UNL1     0.0882
     62 H         1.758634   3.516897   3.722912 H        1 UNL1     0.0365
     63 H         3.259422   4.782462   4.285238 H        1 UNL1     0.0576
     64 H         5.915746   3.264263   4.653728 H        1 UNL1     0.0615
     65 H         5.159057   6.291663   4.795589 H        1 UNL1     0.0622
     66 H         -3.40332   5.219834   -0.105649 H        1 UNL1     0.0645
     67 H         -2.525988   3.837919   -1.455021 H        1 UNL1     0.0362
     68 H         -3.816611   2.220458   -0.724209 H        1 UNL1     0.0741
     69 H         -3.013915   0.210816   0.80661 H        1 UNL1     0.0359
     70 H         -1.965202   0.500894   2.759958 H        1 UNL1     0.0600
     71 H         -0.001687   -0.056347   2.025927 H        1 UNL1     0.0348
     72 H         0.661372   1.945966   3.243769 H        1 UNL1     0.0602
     73 H         -1.212392   5.825234   0.641532 H        1 UNL1     0.0628
     74 H         -2.491854   5.204014   3.368745 H        1 UNL1     0.1022
     75 H         9.036278   5.261489   5.620275 H        1 UNL1     0.0279
     76 H         9.21185   5.5216   3.930655 H        1 UNL1     0.0279
     77 H         9.327818   6.877011   5.124267 H        1 UNL1     0.0279
     78 H         7.916216   7.488476   2.674631 H        1 UNL1     0.1553
     79 H         7.141231   5.820246   1.937997 H        1 UNL1     0.1484
     80 H         4.61765   4.784373   -0.707377 H        1 UNL1     0.0317
     81 H         5.045211   6.46278   -0.407264 H        1 UNL1     0.0317
     82 H         7.457375   5.851893   -0.087911 H        1 UNL1     0.0428
     83 H         6.833729   5.353143   -1.644836 H        1 UNL1     0.0428
     84 H         7.090331   2.346979   1.355209 H        1 UNL1     0.0428
     85 H         7.645659   3.923354   1.797673 H        1 UNL1     0.0428
     86 H         5.348884   3.285504   2.53444 H        1 UNL1     0.0317
     87 H         4.790155   3.068331   0.939759 H        1 UNL1     0.0317
     88 H         8.05645   2.701682   -1.734289 H        1 UNL1     0.0429
     89 H         8.901064   4.173522   -1.247924 H        1 UNL1     0.0429
     90 H         9.02768   1.421838   -0.141759 H        1 UNL1     0.0308
     91 H         10.940272   3.350127   0.993245 H        1 UNL1     0.0233
     92 H         11.23899   1.960262   -0.08125 H        1 UNL1     0.0233
     93 H         10.861396   3.531191   -0.7552 H        1 UNL1     0.0233
     94 H         8.866262   3.583018   1.954245 H        1 UNL1     0.0233
     95 H         7.473223   2.596052   1.485559 H        1 UNL1     0.0233
     96 H         8.918231   1.822077   2.176142 H        1 UNL1     0.0233
     97 H         -0.246897   11.075936   3.938386 H        1 UNL1     0.0280
     98 H         1.058853   12.110273   4.450588 H        1 UNL1     0.0280
     99 H         0.660067   11.980077   2.711695 H        1 UNL1     0.0280
     100 H         3.668696   12.239581   2.987701 H        1 UNL1     0.2922
     101 H         1.776395   2.665733   5.948383 H        1 UNL1     0.0236
     102 H         2.599444   1.129426   5.470457 H        1 UNL1     0.0236
     103 H         0.955877   1.454476   5.013806 H        1 UNL1     0.0236
     104 H         2.964728   0.425086   2.23771 H        1 UNL1     0.2098
     105 H         -0.50756   1.637043   -0.270669 H        1 UNL1     0.0234
     106 H         1.2035   1.186275   -0.025358 H        1 UNL1     0.0234
     107 H         0.0   0.0   0.0 H        1 UNL1     0.0234
     108 H         -2.695368   2.848099   2.779372 H        1 UNL1     0.2098
     109 H         -0.369466   3.848994   -1.701163 H        1 UNL1     0.0234
     110 H         -0.311112   4.665417   -0.106531 H        1 UNL1     0.0234
     111 H         -0.046605   2.961166   -0.226552 H        1 UNL1     0.0234
     112 H         -0.700872   -0.545242   0.170437 H        1 UNL1     0.0342
     113 H         -2.282016   -1.103963   -0.482289 H        1 UNL1     0.0342
     114 H         -0.771371   -1.622298   -1.235448 H        1 UNL1     0.0342
     115 H         -4.538703   1.125986   2.539999 H        1 UNL1     0.0234
     116 H         -4.725909   2.546105   1.506073 H        1 UNL1     0.0234
     117 H         -5.162407   0.90957   0.972342 H        1 UNL1     0.0234
     118 H         0.317055   8.605658   0.655439 H        1 UNL1     0.0309
     119 H         -0.400705   6.996563   0.333427 H        1 UNL1     0.0309
     120 H         -1.385086   8.365131   0.802651 H        1 UNL1     0.0309
     121 H         -2.564404   3.742474   3.112652 H        1 UNL1     0.0524
     122 H         -3.918009   2.60564   3.065561 H        1 UNL1     0.0524
     123 H         -2.535305   2.375418   1.966075 H        1 UNL1     0.0524
@<TRIPOS>BOND
     1     1     2    1
     2     1    42    1
     3     2     3    2
     4     3     4    1
     5     4     5    2
     6     5     7    1
     7     6    75    1
     8     6    76    1
     9     6    77    1
    10     7     9   am
    11     9    10    1
    12    10    11    2
    13    10    43    1
    14    11    14    1
    15    11    15    1
    16    12    13   ar
    17    12    27   ar
    18    12    43    1
    19    13    14    1
    20    13    30   ar
    21    14    17    2
    22    15    16    1
    23    16    17    1
    24    16    18    1
    25    16    22    1
    26    18    19    1
    27    19    20    1
    28    20    21    1
    29    21    22    1
    30    23    24    1
    31    23    88    1
    32    23    89    1
    33    24    25    1
    34    24    26    1
    35    24    90    1
    36    25    91    1
    37    25    92    1
    38    25    93    1
    39    26    94    1
    40    26    95    1
    41    26    96    1
    42    27    28   ar
    43    28    29   ar
    44    29    30   ar
    45    29    31    1
    46    30    33    1
    47    31    32    1
    48    32    33    1
    49    32    35    1
    50    34    97    1
    51    34    98    1
    52    34    99    1
    53    35    61    1
    54    36    37    1
    55    36    60    1
    56    37    38    1
    57    38    39    1
    58    39    40    1
    59    40    41    1
    60    41    42    1
    61    45   100    1
    62    47   101    1
    63    47   102    1
    64    47   103    1
    65    48   104    1
    66    49   105    1
    67    49   106    1
    68    49   107    1
    69    50   108    1
    70    51    59    1
    71    52   109    1
    72    52   110    1
    73    52   111    1
    74    53    54    1
    75    54    55    2
    76    54    56    1
    77    56   112    1
    78    56   113    1
    79    56   114    1
    80    57   115    1
    81    57   116    1
    82    57   117    1
    83    58   118    1
    84    58   119    1
    85    58   120    1
    86    59   121    1
    87    59   122    1
    88    59   123    1
    89    60    61    2
    90     1    47    1
    91     1    62    1
    92     2    63    1
    93     3    64    1
    94     4    65    1
    95     5     6    1
    96     7     8    2
    97     9    78    1
    98    15    79    1
    99    18    80    1
   100    18    81    1
   101    19    82    1
   102    19    83    1
   103    20    23    1
   104    21    84    1
   105    21    85    1
   106    22    86    1
   107    22    87    1
   108    27    45    1
   109    28    34    1
   110    32    58    1
   111    33    46    2
   112    36    51    1
   113    36    66    1
   114    37    52    1
   115    37    67    1
   116    38    53    1
   117    38    68    1
   118    42    48    1
   119    42    72    1
   120    43    44    2
   121    60    73    1
   122    61    74    1
   123    39    69    1
   124    39    57    1
   125    40    70    1
   126    40    50    1
   127    41    71    1
   128    41    49    1
