@<TRIPOS>MOLECULE
*****
 123 128 0 0 0
SMALL
GASTEIGER

@<TRIPOS>ATOM
     1 C         3.720568   -2.12108   2.182229 C.3        1 UNL1     0.0009
     2 C         4.636442   -3.732234   2.133283 C.2        1 UNL1     -0.0787
     3 C         4.744434   -5.127442   2.504468 C.2        1 UNL1     -0.0649
     4 C         5.90255   -6.252863   1.995989 C.2        1 UNL1     -0.0542
     5 C         6.199724   -7.631124   1.857564 C.2        1 UNL1     0.0115
     6 C         5.724396   -9.062611   2.229359 C.3        1 UNL1     -0.0348
     7 C         7.38427   -8.074988   0.869219 C.2        1 UNL1     0.2441
     8 O         8.494219   -8.402499   1.265798 O.2        1 UNL1     -0.2702
     9 N         6.98596   -8.313566   -0.457649 N.am        1 UNL1     -0.2772
     10 C         7.03188   -7.149279   -1.18953 C.2        1 UNL1     0.1049
     11 C         5.981756   -6.355057   -1.086222 C.2        1 UNL1     0.0801
     12 C         8.503582   -5.197956   -1.72223 C.ar        1 UNL1     0.0753
     13 C         7.386029   -4.365803   -1.394809 C.ar        1 UNL1     0.0305
     14 C         6.050309   -4.922853   -1.193317 C.2        1 UNL1     0.0924
     15 N         4.773272   -6.586838   -0.545509 N.pl3        1 UNL1     -0.3170
     16 C         3.934204   -5.456781   -0.844157 C.3        1 UNL1     0.1275
     17 N         4.89371   -4.300317   -0.984382 N.2        1 UNL1     -0.2557
     18 C         3.342716   -5.686905   -2.231559 C.3        1 UNL1     0.0016
     19 C         2.619657   -7.024348   -2.236261 C.3        1 UNL1     0.0026
     20 N         1.576694   -6.995819   -1.220169 N.3        1 UNL1     -0.3018
     21 C         2.041752   -6.719107   0.140537 C.3        1 UNL1     0.0026
     22 C         2.760923   -5.369152   0.122942 C.3        1 UNL1     0.0016
     23 C         0.641045   -8.096052   -1.341375 C.3        1 UNL1     0.0012
     24 C         -0.237621   -7.920807   -2.58997 C.3        1 UNL1     -0.0339
     25 C         0.254551   -8.799415   -3.751809 C.3        1 UNL1     -0.0615
     26 C         -1.689813   -8.206739   -2.249147 C.3        1 UNL1     -0.0615
     27 C         9.745995   -4.649265   -2.031206 C.ar        1 UNL1     0.1347
     28 C         9.98117   -3.286932   -2.084065 C.ar        1 UNL1     0.0342
     29 C         8.879433   -2.488361   -1.710404 C.ar        1 UNL1     0.1435
     30 C         7.638964   -3.025074   -1.36342 C.ar        1 UNL1     0.0774
     31 O         8.916479   -1.142144   -1.816856 O.3        1 UNL1     -0.4436
     32 C         7.538303   -0.74027   -1.816568 C.3        1 UNL1     0.3143
     33 C         6.796243   -1.870449   -1.132275 C.2        1 UNL1     0.2504
     34 C         11.207524   -2.625129   -2.648132 C.3        1 UNL1     -0.0327
     35 O         7.429199   0.406621   -0.964519 O.2        1 UNL1     -0.4528
     36 C         4.562654   2.468633   -2.357042 C.3        1 UNL1     0.0854
     37 C         3.060948   2.051662   -2.598981 C.3        1 UNL1     0.0236
     38 C         1.974975   2.995146   -1.890289 C.3        1 UNL1     0.1131
     39 C         2.11292   3.332153   -0.350916 C.3        1 UNL1     0.0200
     40 C         2.508593   2.137066   0.743455 C.3        1 UNL1     0.0661
     41 C         1.76033   0.620096   0.871962 C.3        1 UNL1     0.0091
     42 C         2.446332   -1.006833   1.369864 C.3        1 UNL1     0.0661
     43 C         8.2729   -6.66133   -1.809312 C.2        1 UNL1     0.2131
     44 O         8.990276   -7.419649   -2.436258 O.2        1 UNL1     -0.2851
     45 O         10.793005   -5.53031   -2.29382 O.3        1 UNL1     -0.5056
     46 O         5.755172   -1.824039   -0.515938 O.2        1 UNL1     -0.2836
     47 C         3.889196   -1.446876   3.570391 C.3        1 UNL1     -0.0566
     48 O         1.337291   -1.316462   2.304354 O.3        1 UNL1     -0.3909
     49 C         0.91871   0.384955   -0.362493 C.3        1 UNL1     -0.0577
     50 O         3.911144   1.99407   0.84408 O.3        1 UNL1     -0.3910
     51 O         4.772259   3.499201   -1.418199 O.3        1 UNL1     -0.3753
     52 C         2.892589   0.498766   -2.670517 C.3        1 UNL1     -0.0564
     53 O         0.580282   2.800353   -2.409147 O.3        1 UNL1     -0.4608
     54 C         -0.569649   3.138793   -1.745034 C.2        1 UNL1     0.3042
     55 O         -1.339132   2.384051   -1.151655 O.2        1 UNL1     -0.2512
     56 C         -0.840457   4.616295   -1.725942 C.3        1 UNL1     0.0332
     57 C         2.872818   4.734367   -0.230397 C.3        1 UNL1     -0.0567
     58 C         7.099758   -0.68062   -3.298341 C.3        1 UNL1     0.0210
     59 C         5.961457   4.261336   -1.620252 C.3        1 UNL1     0.0372
     60 C         5.472169   1.352623   -1.979597 C.2        1 UNL1     -0.0208
     61 C         6.409322   1.28362   -1.033168 C.2        1 UNL1     0.0882
     62 H         4.487025   -1.687502   1.528573 H        1 UNL1     0.0365
     63 H         5.536067   -3.438547   1.588405 H        1 UNL1     0.0576
     64 H         3.947647   -5.637964   3.050001 H        1 UNL1     0.0615
     65 H         6.681702   -5.636693   1.539108 H        1 UNL1     0.0622
     66 H         4.911829   2.823657   -3.336879 H        1 UNL1     0.0645
     67 H         2.887735   2.279988   -3.665013 H        1 UNL1     0.0362
     68 H         2.181581   3.940124   -2.415506 H        1 UNL1     0.0741
     69 H         1.157231   3.6824   0.015682 H        1 UNL1     0.0359
     70 H         2.21312   2.636277   1.686082 H        1 UNL1     0.0600
     71 H         0.981487   0.851893   1.62471 H        1 UNL1     0.0348
     72 H         3.148914   -0.251837   1.751538 H        1 UNL1     0.0602
     73 H         5.374355   0.567633   -2.687743 H        1 UNL1     0.0628
     74 H         6.536146   2.017199   -0.23629 H        1 UNL1     0.1022
     75 H         4.746285   -9.023673   2.766775 H        1 UNL1     0.0279
     76 H         5.509624   -9.73311   1.400279 H        1 UNL1     0.0279
     77 H         6.366749   -9.541755   2.982688 H        1 UNL1     0.0279
     78 H         6.024113   -8.646337   -0.471457 H        1 UNL1     0.1553
     79 H         4.407376   -7.505034   -0.37239 H        1 UNL1     0.1484
     80 H         2.660703   -4.862041   -2.470774 H        1 UNL1     0.0317
     81 H         4.125897   -5.678136   -2.997197 H        1 UNL1     0.0317
     82 H         3.312371   -7.862259   -2.069035 H        1 UNL1     0.0428
     83 H         2.207157   -7.169262   -3.235208 H        1 UNL1     0.0428
     84 H         1.231556   -6.624115   0.870174 H        1 UNL1     0.0428
     85 H         2.661443   -7.536311   0.534845 H        1 UNL1     0.0428
     86 H         2.968611   -5.138299   1.15132 H        1 UNL1     0.0317
     87 H         2.06448   -4.577475   -0.179234 H        1 UNL1     0.0317
     88 H         1.217404   -9.024451   -1.447116 H        1 UNL1     0.0429
     89 H         0.02779   -8.199464   -0.436942 H        1 UNL1     0.0429
     90 H         -0.205423   -6.871828   -2.907493 H        1 UNL1     0.0308
     91 H         0.470943   -9.818053   -3.416169 H        1 UNL1     0.0233
     92 H         -0.489596   -8.835584   -4.5509 H        1 UNL1     0.0233
     93 H         1.174056   -8.412546   -4.207526 H        1 UNL1     0.0233
     94 H         -2.268222   -8.367476   -3.165358 H        1 UNL1     0.0233
     95 H         -1.759615   -9.114201   -1.642844 H        1 UNL1     0.0233
     96 H         -2.14078   -7.377596   -1.69677 H        1 UNL1     0.0233
     97 H         11.146296   -1.542159   -2.596585 H        1 UNL1     0.0280
     98 H         12.116744   -2.901243   -2.098281 H        1 UNL1     0.0280
     99 H         11.330054   -2.914411   -3.704729 H        1 UNL1     0.0280
     100 H         11.275317   -5.342087   -3.079677 H        1 UNL1     0.2922
     101 H         3.481292   -0.436738   3.540503 H        1 UNL1     0.0236
     102 H         4.916611   -1.462517   3.932546 H        1 UNL1     0.0236
     103 H         3.307264   -1.960616   4.353729 H        1 UNL1     0.0236
     104 H         1.575888   -0.948298   3.177565 H        1 UNL1     0.2098
     105 H         0.70043   1.28297   -0.934973 H        1 UNL1     0.0234
     106 H         1.285585   -0.402668   -1.020506 H        1 UNL1     0.0234
     107 H         0.0   -0.0   0.0 H        1 UNL1     0.0234
     108 H         4.226799   1.626134   -0.003714 H        1 UNL1     0.2098
     109 H         3.233697   0.000632   -1.752247 H        1 UNL1     0.0234
     110 H         1.867355   0.186994   -2.897314 H        1 UNL1     0.0234
     111 H         3.489066   0.064033   -3.48364 H        1 UNL1     0.0234
     112 H         -1.757612   4.819328   -1.164739 H        1 UNL1     0.0342
     113 H         -0.00185   5.181173   -1.321596 H        1 UNL1     0.0342
     114 H         -0.998177   4.949601   -2.760928 H        1 UNL1     0.0342
     115 H         2.393551   5.512373   -0.840476 H        1 UNL1     0.0234
     116 H         2.94341   5.114739   0.790575 H        1 UNL1     0.0234
     117 H         3.889143   4.722335   -0.660376 H        1 UNL1     0.0234
     118 H         7.379853   0.274838   -3.77547 H        1 UNL1     0.0309
     119 H         7.493307   -1.508567   -3.896527 H        1 UNL1     0.0309
     120 H         6.011069   -0.712125   -3.416103 H        1 UNL1     0.0309
     121 H         6.257154   4.672918   -0.655617 H        1 UNL1     0.0524
     122 H         6.797324   3.642946   -1.987619 H        1 UNL1     0.0524
     123 H         5.777893   5.063353   -2.329593 H        1 UNL1     0.0524
@<TRIPOS>BOND
     1     1     2    1
     2     1    42    1
     3     2     3    2
     4     3     4    1
     5     4     5    2
     6     5     7    1
     7     6    75    1
     8     6    76    1
     9     6    77    1
    10     7     9   am
    11     9    10    1
    12    10    11    2
    13    10    43    1
    14    11    14    1
    15    11    15    1
    16    12    13   ar
    17    12    27   ar
    18    12    43    1
    19    13    14    1
    20    13    30   ar
    21    14    17    2
    22    15    16    1
    23    16    17    1
    24    16    18    1
    25    16    22    1
    26    18    19    1
    27    19    20    1
    28    20    21    1
    29    21    22    1
    30    23    24    1
    31    23    88    1
    32    23    89    1
    33    24    25    1
    34    24    26    1
    35    24    90    1
    36    25    91    1
    37    25    92    1
    38    25    93    1
    39    26    94    1
    40    26    95    1
    41    26    96    1
    42    27    28   ar
    43    28    29   ar
    44    29    30   ar
    45    29    31    1
    46    30    33    1
    47    31    32    1
    48    32    33    1
    49    32    35    1
    50    34    97    1
    51    34    98    1
    52    34    99    1
    53    35    61    1
    54    36    37    1
    55    36    60    1
    56    37    38    1
    57    38    39    1
    58    39    40    1
    59    40    41    1
    60    41    42    1
    61    45   100    1
    62    47   101    1
    63    47   102    1
    64    47   103    1
    65    48   104    1
    66    49   105    1
    67    49   106    1
    68    49   107    1
    69    50   108    1
    70    51    59    1
    71    52   109    1
    72    52   110    1
    73    52   111    1
    74    53    54    1
    75    54    55    2
    76    54    56    1
    77    56   112    1
    78    56   113    1
    79    56   114    1
    80    57   115    1
    81    57   116    1
    82    57   117    1
    83    58   118    1
    84    58   119    1
    85    58   120    1
    86    59   121    1
    87    59   122    1
    88    59   123    1
    89    60    61    2
    90     1    47    1
    91     1    62    1
    92     2    63    1
    93     3    64    1
    94     4    65    1
    95     5     6    1
    96     7     8    2
    97     9    78    1
    98    15    79    1
    99    18    80    1
   100    18    81    1
   101    19    82    1
   102    19    83    1
   103    20    23    1
   104    21    84    1
   105    21    85    1
   106    22    86    1
   107    22    87    1
   108    27    45    1
   109    28    34    1
   110    32    58    1
   111    33    46    2
   112    36    51    1
   113    36    66    1
   114    37    52    1
   115    37    67    1
   116    38    53    1
   117    38    68    1
   118    42    48    1
   119    42    72    1
   120    43    44    2
   121    60    73    1
   122    61    74    1
   123    39    69    1
   124    39    57    1
   125    40    70    1
   126    40    50    1
   127    41    71    1
   128    41    49    1
