@<TRIPOS>MOLECULE
*****
 123 128 0 0 0
SMALL
GASTEIGER

@<TRIPOS>ATOM
     1 C         5.192562   1.659952   0.530215 C.3        1 UNL1     0.0009
     2 C         6.627704   2.501628   -0.2877 C.2        1 UNL1     -0.0787
     3 C         7.9   2.431039   -0.974961 C.2        1 UNL1     -0.0649
     4 C         8.782074   3.701002   -1.664525 C.2        1 UNL1     -0.0542
     5 C         9.793637   4.040107   -2.596632 C.2        1 UNL1     0.0115
     6 C         10.903753   3.457268   -3.513837 C.3        1 UNL1     -0.0348
     7 C         9.898408   5.556857   -3.111882 C.2        1 UNL1     0.2441
     8 O         10.736277   6.344806   -2.695182 O.2        1 UNL1     -0.2702
     9 N         9.136111   5.843645   -4.25766 N.am        1 UNL1     -0.2772
     10 C         7.861907   6.223887   -3.903905 C.2        1 UNL1     0.1049
     11 C         7.008748   5.245387   -3.661255 C.2        1 UNL1     0.0801
     12 C         6.599634   7.754192   -2.380038 C.ar        1 UNL1     0.0753
     13 C         5.833332   6.608974   -1.992913 C.ar        1 UNL1     0.0305
     14 C         5.927272   5.344407   -2.718927 C.2        1 UNL1     0.0924
     15 N         7.114155   3.927524   -3.903443 N.pl3        1 UNL1     -0.3170
     16 C         5.841521   3.323687   -3.610121 C.3        1 UNL1     0.1275
     17 N         5.228331   4.223374   -2.564997 N.2        1 UNL1     -0.2557
     18 C         4.973763   3.4697   -4.856467 C.3        1 UNL1     0.0016
     19 C         5.706673   2.848533   -6.034849 C.3        1 UNL1     0.0026
     20 N         5.965793   1.446448   -5.738127 N.3        1 UNL1     -0.3018
     21 C         6.74261   1.201766   -4.521141 C.3        1 UNL1     0.0026
     22 C         5.985818   1.830073   -3.34965 C.3        1 UNL1     0.0016
     23 C         6.387057   0.692243   -6.901895 C.3        1 UNL1     0.0012
     24 C         5.216712   0.516168   -7.882225 C.3        1 UNL1     -0.0339
     25 C         5.249182   1.578424   -8.993356 C.3        1 UNL1     -0.0615
     26 C         5.223316   -0.890985   -8.453764 C.3        1 UNL1     -0.0615
     27 C         6.416227   8.988288   -1.760776 C.ar        1 UNL1     0.1347
     28 C         5.472327   9.208306   -0.77351 C.ar        1 UNL1     0.0342
     29 C         4.763599   8.055156   -0.37462 C.ar        1 UNL1     0.1435
     30 C         4.962046   6.804487   -0.960851 C.ar        1 UNL1     0.0774
     31 O         3.734667   8.126943   0.497821 O.3        1 UNL1     -0.4436
     32 C         2.997208   6.913008   0.289524 C.3        1 UNL1     0.3143
     33 C         3.992372   5.943876   -0.315989 C.2        1 UNL1     0.2504
     34 C         5.046674   10.549308   -0.24376 C.3        1 UNL1     -0.0327
     35 O         2.64799   6.399807   1.581006 O.2        1 UNL1     -0.4528
     36 C         -0.621652   4.530467   1.108674 C.3        1 UNL1     0.0854
     37 C         -0.952509   3.33097   0.139519 C.3        1 UNL1     0.0236
     38 C         -1.557619   2.030195   0.856157 C.3        1 UNL1     0.1131
     39 C         -0.821858   1.41228   2.112782 C.3        1 UNL1     0.0200
     40 C         0.837942   1.246767   2.123115 C.3        1 UNL1     0.0661
     41 C         1.773832   0.541319   0.896712 C.3        1 UNL1     0.0091
     42 C         3.478311   0.919749   0.333735 C.3        1 UNL1     0.0661
     43 C         7.533218   7.605916   -3.52402 C.2        1 UNL1     0.2131
     44 O         7.934391   8.542294   -4.1911 O.2        1 UNL1     -0.2851
     45 O         7.234528   10.040987   -2.165309 O.3        1 UNL1     -0.5056
     46 O         3.996203   4.734465   -0.259752 O.2        1 UNL1     -0.2836
     47 C         5.601841   1.138374   1.933935 C.3        1 UNL1     -0.0566
     48 O         3.911668   -0.498417   0.322628 O.3        1 UNL1     -0.3909
     49 C         0.921674   0.394568   -0.344169 C.3        1 UNL1     -0.0577
     50 O         1.456889   2.431611   2.582216 O.3        1 UNL1     -0.3910
     51 O         -0.730584   4.256659   2.487295 O.3        1 UNL1     -0.3753
     52 C         0.07562   3.230768   -1.034304 C.3        1 UNL1     -0.0564
     53 O         -2.18323   1.05518   -0.097931 O.3        1 UNL1     -0.4608
     54 C         -2.428346   -0.267461   0.163731 C.2        1 UNL1     0.3042
     55 O         -1.87622   -1.243694   -0.342199 O.2        1 UNL1     -0.2512
     56 C         -3.456784   -0.487769   1.236342 C.3        1 UNL1     0.0332
     57 C         -1.519428   2.009854   3.422161 C.3        1 UNL1     -0.0567
     58 C         1.911484   7.235958   -0.763298 C.3        1 UNL1     0.0210
     59 C         -1.021024   5.391043   3.302576 C.3        1 UNL1     0.0372
     60 C         0.71149   5.158369   0.899785 C.2        1 UNL1     -0.0208
     61 C         1.640098   5.529386   1.782269 C.2        1 UNL1     0.0882
     62 H         4.729068   2.641888   0.684122 H        1 UNL1     0.0365
     63 H         6.374876   3.549705   -0.114261 H        1 UNL1     0.0576
     64 H         8.343764   1.474839   -1.261076 H        1 UNL1     0.0615
     65 H         8.309862   4.598407   -1.255668 H        1 UNL1     0.0622
     66 H         -1.361505   5.302608   0.854781 H        1 UNL1     0.0645
     67 H         -1.821998   3.686664   -0.440163 H        1 UNL1     0.0362
     68 H         -2.495172   2.454621   1.246515 H        1 UNL1     0.0741
     69 H         -1.162483   0.394649   2.249929 H        1 UNL1     0.0359
     70 H         0.953106   0.532188   2.960476 H        1 UNL1     0.0600
     71 H         1.811025   -0.504642   1.259398 H        1 UNL1     0.0348
     72 H         3.390231   1.347703   1.3429 H        1 UNL1     0.0602
     73 H         0.818725   5.417905   -0.124124 H        1 UNL1     0.0628
     74 H         1.633459   5.253339   2.837253 H        1 UNL1     0.1022
     75 H         10.918552   2.342404   -3.451449 H        1 UNL1     0.0279
     76 H         10.79137   3.630663   -4.58172 H        1 UNL1     0.0279
     77 H         11.91699   3.707302   -3.166657 H        1 UNL1     0.0279
     78 H         9.05762   5.008431   -4.834144 H        1 UNL1     0.1553
     79 H         7.766741   3.531354   -4.554683 H        1 UNL1     0.1484
     80 H         4.009412   2.978009   -4.680303 H        1 UNL1     0.0317
     81 H         4.75569   4.523551   -5.060163 H        1 UNL1     0.0317
     82 H         6.640202   3.38416   -6.261872 H        1 UNL1     0.0428
     83 H         5.07114   2.965233   -6.913216 H        1 UNL1     0.0428
     84 H         6.854814   0.140508   -4.27834 H        1 UNL1     0.0428
     85 H         7.775478   1.564492   -4.615635 H        1 UNL1     0.0428
     86 H         6.510604   1.518688   -2.465554 H        1 UNL1     0.0317
     87 H         5.002599   1.356106   -3.241336 H        1 UNL1     0.0317
     88 H         7.182648   1.257006   -7.405256 H        1 UNL1     0.0429
     89 H         6.813125   -0.277932   -6.615539 H        1 UNL1     0.0429
     90 H         4.271765   0.612555   -7.334504 H        1 UNL1     0.0308
     91 H         6.194975   1.550561   -9.54272 H        1 UNL1     0.0233
     92 H         4.423405   1.430685   -9.693267 H        1 UNL1     0.0233
     93 H         5.139049   2.596652   -8.601031 H        1 UNL1     0.0233
     94 H         4.517003   -0.963179   -9.287878 H        1 UNL1     0.0233
     95 H         6.219373   -1.135419   -8.833348 H        1 UNL1     0.0233
     96 H         4.942386   -1.629932   -7.698115 H        1 UNL1     0.0233
     97 H         4.255715   10.463082   0.495278 H        1 UNL1     0.0280
     98 H         5.869317   11.076691   0.256621 H        1 UNL1     0.0280
     99 H         4.677512   11.17374   -1.073759 H        1 UNL1     0.0280
     100 H         6.772179   10.815452   -2.433747 H        1 UNL1     0.2922
     101 H         4.737516   0.694799   2.427735 H        1 UNL1     0.0236
     102 H         6.079994   1.898388   2.55097 H        1 UNL1     0.0236
     103 H         6.339501   0.320848   1.87309 H        1 UNL1     0.0236
     104 H         4.340261   -0.6826   1.181322 H        1 UNL1     0.2098
     105 H         0.712214   1.329261   -0.858258 H        1 UNL1     0.0234
     106 H         1.273815   -0.355387   -1.05233 H        1 UNL1     0.0234
     107 H         0.0   -0.0   0.0 H        1 UNL1     0.0234
     108 H         1.272134   3.12917   1.924155 H        1 UNL1     0.2098
     109 H         1.105328   3.095517   -0.674971 H        1 UNL1     0.0234
     110 H         -0.168057   2.441559   -1.753689 H        1 UNL1     0.0234
     111 H         0.089854   4.147202   -1.639194 H        1 UNL1     0.0234
     112 H         -3.589345   -1.55993   1.410247 H        1 UNL1     0.0342
     113 H         -3.202187   0.02936   2.160248 H        1 UNL1     0.0342
     114 H         -4.414682   -0.083179   0.881514 H        1 UNL1     0.0342
     115 H         -2.591267   1.771121   3.458964 H        1 UNL1     0.0234
     116 H         -1.074271   1.666735   4.358192 H        1 UNL1     0.0234
     117 H         -1.546008   3.112961   3.441927 H        1 UNL1     0.0234
     118 H         1.020614   7.704674   -0.309799 H        1 UNL1     0.0309
     119 H         2.276593   7.872288   -1.575691 H        1 UNL1     0.0309
     120 H         1.508097   6.336264   -1.240726 H        1 UNL1     0.0309
     121 H         -0.193747   6.09253   3.198238 H        1 UNL1     0.0524
     122 H         -1.939592   5.91124   2.983728 H        1 UNL1     0.0524
     123 H         -1.128583   5.090068   4.340814 H        1 UNL1     0.0524
@<TRIPOS>BOND
     1     1     2    1
     2     1    42    1
     3     2     3    2
     4     3     4    1
     5     4     5    2
     6     5     7    1
     7     6    75    1
     8     6    76    1
     9     6    77    1
    10     7     9   am
    11     9    10    1
    12    10    11    2
    13    10    43    1
    14    11    14    1
    15    11    15    1
    16    12    13   ar
    17    12    27   ar
    18    12    43    1
    19    13    14    1
    20    13    30   ar
    21    14    17    2
    22    15    16    1
    23    16    17    1
    24    16    18    1
    25    16    22    1
    26    18    19    1
    27    19    20    1
    28    20    21    1
    29    21    22    1
    30    23    24    1
    31    23    88    1
    32    23    89    1
    33    24    25    1
    34    24    26    1
    35    24    90    1
    36    25    91    1
    37    25    92    1
    38    25    93    1
    39    26    94    1
    40    26    95    1
    41    26    96    1
    42    27    28   ar
    43    28    29   ar
    44    29    30   ar
    45    29    31    1
    46    30    33    1
    47    31    32    1
    48    32    33    1
    49    32    35    1
    50    34    97    1
    51    34    98    1
    52    34    99    1
    53    35    61    1
    54    36    37    1
    55    36    60    1
    56    37    38    1
    57    38    39    1
    58    39    40    1
    59    40    41    1
    60    41    42    1
    61    45   100    1
    62    47   101    1
    63    47   102    1
    64    47   103    1
    65    48   104    1
    66    49   105    1
    67    49   106    1
    68    49   107    1
    69    50   108    1
    70    51    59    1
    71    52   109    1
    72    52   110    1
    73    52   111    1
    74    53    54    1
    75    54    55    2
    76    54    56    1
    77    56   112    1
    78    56   113    1
    79    56   114    1
    80    57   115    1
    81    57   116    1
    82    57   117    1
    83    58   118    1
    84    58   119    1
    85    58   120    1
    86    59   121    1
    87    59   122    1
    88    59   123    1
    89    60    61    2
    90     1    47    1
    91     1    62    1
    92     2    63    1
    93     3    64    1
    94     4    65    1
    95     5     6    1
    96     7     8    2
    97     9    78    1
    98    15    79    1
    99    18    80    1
   100    18    81    1
   101    19    82    1
   102    19    83    1
   103    20    23    1
   104    21    84    1
   105    21    85    1
   106    22    86    1
   107    22    87    1
   108    27    45    1
   109    28    34    1
   110    32    58    1
   111    33    46    2
   112    36    51    1
   113    36    66    1
   114    37    52    1
   115    37    67    1
   116    38    53    1
   117    38    68    1
   118    42    48    1
   119    42    72    1
   120    43    44    2
   121    60    73    1
   122    61    74    1
   123    39    69    1
   124    39    57    1
   125    40    70    1
   126    40    50    1
   127    41    71    1
   128    41    49    1
