@<TRIPOS>MOLECULE
*****
 123 128 0 0 0
SMALL
GASTEIGER

@<TRIPOS>ATOM
     1 C         5.167527   1.745531   0.49937 C.3        1 UNL1     0.0009
     2 C         6.606146   2.550394   -0.348928 C.2        1 UNL1     -0.0787
     3 C         7.889139   2.451147   -1.012346 C.2        1 UNL1     -0.0649
     4 C         8.768585   3.68538   -1.767066 C.2        1 UNL1     -0.0542
     5 C         9.790419   3.976956   -2.704038 C.2        1 UNL1     0.0115
     6 C         10.919798   3.350425   -3.567337 C.3        1 UNL1     -0.0348
     7 C         9.887629   5.459827   -3.31119 C.2        1 UNL1     0.2441
     8 O         10.711293   6.281235   -2.932519 O.2        1 UNL1     -0.2702
     9 N         9.13958   5.666556   -4.483298 N.am        1 UNL1     -0.2772
     10 C         7.856525   6.054104   -4.172012 C.2        1 UNL1     0.1049
     11 C         7.0097   5.083311   -3.881032 C.2        1 UNL1     0.0801
     12 C         6.556526   7.662235   -2.764442 C.ar        1 UNL1     0.0753
     13 C         5.796071   6.534978   -2.317669 C.ar        1 UNL1     0.0305
     14 C         5.913428   5.228859   -2.962131 C.2        1 UNL1     0.0924
     15 N         7.131878   3.754179   -4.039175 N.pl3        1 UNL1     -0.3170
     16 C         5.861143   3.155871   -3.726903 C.3        1 UNL1     0.1275
     17 N         5.22354   4.111989   -2.748628 N.2        1 UNL1     -0.2557
     18 C         5.010551   3.214707   -4.992104 C.3        1 UNL1     0.0016
     19 C         5.767043   2.529585   -6.119009 C.3        1 UNL1     0.0026
     20 N         6.035758   1.151549   -5.731918 N.3        1 UNL1     -0.3018
     21 C         6.796848   0.991424   -4.491163 C.3        1 UNL1     0.0026
     22 C         6.016507   1.682984   -3.371918 C.3        1 UNL1     0.0016
     23 C         6.48177   0.33116   -6.840375 C.3        1 UNL1     0.0012
     24 C         5.326801   0.078133   -7.822098 C.3        1 UNL1     -0.0339
     25 C         5.345461   1.085066   -8.983904 C.3        1 UNL1     -0.0615
     26 C         5.373915   -1.35477   -8.323447 C.3        1 UNL1     -0.0615
     27 C         6.351606   8.930338   -2.225886 C.ar        1 UNL1     0.1347
     28 C         5.391009   9.200935   -1.267721 C.ar        1 UNL1     0.0342
     29 C         4.688023   8.06712   -0.807897 C.ar        1 UNL1     0.1435
     30 C         4.907657   6.784695   -1.312245 C.ar        1 UNL1     0.0774
     31 O         3.645596   8.181723   0.043701 O.3        1 UNL1     -0.4436
     32 C         2.923499   6.949216   -0.099045 C.3        1 UNL1     0.3143
     33 C         3.937189   5.955267   -0.628866 C.2        1 UNL1     0.2504
     34 C         4.944139   10.567526   -0.828586 C.3        1 UNL1     -0.0327
     35 O         2.560317   6.513443   1.216801 O.2        1 UNL1     -0.4528
     36 C         -0.683077   4.582795   0.815455 C.3        1 UNL1     0.0854
     37 C         -0.987495   3.321877   -0.081729 C.3        1 UNL1     0.0236
     38 C         -1.590115   2.061599   0.705856 C.3        1 UNL1     0.1131
     39 C         -0.866926   1.530997   2.008826 C.3        1 UNL1     0.0200
     40 C         0.794112   1.384574   2.052984 C.3        1 UNL1     0.0661
     41 C         1.755108   0.61457   0.886283 C.3        1 UNL1     0.0091
     42 C         3.463877   0.975885   0.325066 C.3        1 UNL1     0.0661
     43 C         7.508416   7.453391   -3.883616 C.2        1 UNL1     0.2131
     44 O         7.910044   8.350849   -4.601948 O.2        1 UNL1     -0.2851
     45 O         7.165237   9.964747   -2.683532 O.3        1 UNL1     -0.5056
     46 O         3.952295   4.751798   -0.497386 O.2        1 UNL1     -0.2836
     47 C         5.56114   1.316647   1.938505 C.3        1 UNL1     -0.0566
     48 O         3.911529   -0.435417   0.408429 O.3        1 UNL1     -0.3909
     49 C         0.922964   0.381735   -0.355014 C.3        1 UNL1     -0.0577
     50 O         1.394286   2.602331   2.446153 O.3        1 UNL1     -0.3910
     51 O         -0.809701   4.393973   2.206765 O.3        1 UNL1     -0.3753
     52 C         0.058885   3.160188   -1.232335 C.3        1 UNL1     -0.0564
     53 O         -2.19171   1.022435   -0.194448 O.3        1 UNL1     -0.4608
     54 C         -2.415317   -0.287245   0.141214 C.2        1 UNL1     0.3042
     55 O         -1.842907   -1.280796   -0.304925 O.2        1 UNL1     -0.2512
     56 C         -3.446674   -0.464183   1.21904 C.3        1 UNL1     0.0332
     57 C         -1.589791   2.201096   3.268432 C.3        1 UNL1     -0.0567
     58 C         1.850333   7.194279   -1.185226 C.3        1 UNL1     0.0210
     59 C         -1.162169   5.56551   2.941022 C.3        1 UNL1     0.0372
     60 C         0.646662   5.211024   0.586804 C.2        1 UNL1     -0.0208
     61 C         1.558316   5.646253   1.457555 C.2        1 UNL1     0.0882
     62 H         4.691993   2.730012   0.585249 H        1 UNL1     0.0365
     63 H         6.340291   3.604398   -0.244687 H        1 UNL1     0.0576
     64 H         8.34665   1.483922   -1.232046 H        1 UNL1     0.0615
     65 H         8.281399   4.601239   -1.421618 H        1 UNL1     0.0622
     66 H         -1.426777   5.329553   0.503509 H        1 UNL1     0.0645
     67 H         -1.851807   3.631367   -0.694706 H        1 UNL1     0.0362
     68 H         -2.537558   2.499192   1.055694 H        1 UNL1     0.0741
     69 H         -1.199342   0.520192   2.204225 H        1 UNL1     0.0359
     70 H         0.903991   0.724685   2.934763 H        1 UNL1     0.0600
     71 H         1.797388   -0.406375   1.313882 H        1 UNL1     0.0348
     72 H         3.356556   1.464708   1.304275 H        1 UNL1     0.0602
     73 H         0.766471   5.407617   -0.449654 H        1 UNL1     0.0628
     74 H         1.538792   5.43621   2.52748 H        1 UNL1     0.1022
     75 H         10.963407   2.245209   -3.413611 H        1 UNL1     0.0279
     76 H         10.808089   3.432659   -4.646145 H        1 UNL1     0.0279
     77 H         11.924469   3.654766   -3.239141 H        1 UNL1     0.0279
     78 H         9.078016   4.796341   -5.007714 H        1 UNL1     0.1553
     79 H         7.797988   3.325471   -4.655162 H        1 UNL1     0.1484
     80 H         4.048664   2.724411   -4.799361 H        1 UNL1     0.0317
     81 H         4.784982   4.251429   -5.264095 H        1 UNL1     0.0317
     82 H         6.698427   3.060235   -6.365679 H        1 UNL1     0.0428
     83 H         5.143474   2.584558   -7.011863 H        1 UNL1     0.0428
     84 H         6.916058   -0.051416   -4.181187 H        1 UNL1     0.0428
     85 H         7.827321   1.358834   -4.5934 H        1 UNL1     0.0428
     86 H         6.531213   1.43286   -2.462795 H        1 UNL1     0.0317
     87 H         5.036585   1.205955   -3.248259 H        1 UNL1     0.0317
     88 H         7.27686   0.873588   -7.368484 H        1 UNL1     0.0429
     89 H         6.916065   -0.613299   -6.488012 H        1 UNL1     0.0429
     90 H         4.373881   0.177742   -7.288961 H        1 UNL1     0.0308
     91 H         6.293483   1.046179   -9.528739 H        1 UNL1     0.0233
     92 H         4.52468   0.889388   -9.677905 H        1 UNL1     0.0233
     93 H         5.217069   2.119303   -8.642286 H        1 UNL1     0.0233
     94 H         4.677261   -1.485845   -9.158508 H        1 UNL1     0.0233
     95 H         6.379207   -1.592066   -8.682669 H        1 UNL1     0.0233
     96 H         5.104746   -2.062631   -7.534493 H        1 UNL1     0.0233
     97 H         4.149488   10.518607   -0.090097 H        1 UNL1     0.0280
     98 H         5.756386   11.137396   -0.358736 H        1 UNL1     0.0280
     99 H         4.572283   11.13176   -1.699481 H        1 UNL1     0.0280
     100 H         6.699172   10.715032   -3.008307 H        1 UNL1     0.2922
     101 H         4.697616   0.882347   2.44186 H        1 UNL1     0.0236
     102 H         6.009962   2.122495   2.51829 H        1 UNL1     0.0236
     103 H         6.318092   0.51464   1.939193 H        1 UNL1     0.0236
     104 H         4.332004   -0.560391   1.281672 H        1 UNL1     0.2098
     105 H         0.712438   1.28024   -0.929627 H        1 UNL1     0.0234
     106 H         1.292643   -0.407377   -1.009663 H        1 UNL1     0.0234
     107 H         0.0   -0.0   0.0 H        1 UNL1     0.0234
     108 H         1.194906   3.261022   1.753231 H        1 UNL1     0.2098
     109 H         1.082226   3.040185   -0.850124 H        1 UNL1     0.0234
     110 H         -0.176122   2.33667   -1.915221 H        1 UNL1     0.0234
     111 H         0.086096   4.045172   -1.881957 H        1 UNL1     0.0234
     112 H         -3.574123   -1.528031   1.441142 H        1 UNL1     0.0342
     113 H         -3.198428   0.095899   2.119331 H        1 UNL1     0.0342
     114 H         -4.405366   -0.081508   0.842696 H        1 UNL1     0.0342
     115 H         -2.654187   1.933278   3.318654 H        1 UNL1     0.0234
     116 H         -1.140058   1.940866   4.228676 H        1 UNL1     0.0234
     117 H         -1.649555   3.301389   3.207384 H        1 UNL1     0.0234
     118 H         0.94881   7.681914   -0.774771 H        1 UNL1     0.0309
     119 H         2.221492   7.781568   -2.031119 H        1 UNL1     0.0309
     120 H         1.461994   6.262283   -1.610295 H        1 UNL1     0.0309
     121 H         -0.363076   6.293496   2.803751 H        1 UNL1     0.0524
     122 H         -2.095593   6.024062   2.574298 H        1 UNL1     0.0524
     123 H         -1.27621   5.328378   3.994994 H        1 UNL1     0.0524
@<TRIPOS>BOND
     1     1     2    1
     2     1    42    1
     3     2     3    2
     4     3     4    1
     5     4     5    2
     6     5     7    1
     7     6    75    1
     8     6    76    1
     9     6    77    1
    10     7     9   am
    11     9    10    1
    12    10    11    2
    13    10    43    1
    14    11    14    1
    15    11    15    1
    16    12    13   ar
    17    12    27   ar
    18    12    43    1
    19    13    14    1
    20    13    30   ar
    21    14    17    2
    22    15    16    1
    23    16    17    1
    24    16    18    1
    25    16    22    1
    26    18    19    1
    27    19    20    1
    28    20    21    1
    29    21    22    1
    30    23    24    1
    31    23    88    1
    32    23    89    1
    33    24    25    1
    34    24    26    1
    35    24    90    1
    36    25    91    1
    37    25    92    1
    38    25    93    1
    39    26    94    1
    40    26    95    1
    41    26    96    1
    42    27    28   ar
    43    28    29   ar
    44    29    30   ar
    45    29    31    1
    46    30    33    1
    47    31    32    1
    48    32    33    1
    49    32    35    1
    50    34    97    1
    51    34    98    1
    52    34    99    1
    53    35    61    1
    54    36    37    1
    55    36    60    1
    56    37    38    1
    57    38    39    1
    58    39    40    1
    59    40    41    1
    60    41    42    1
    61    45   100    1
    62    47   101    1
    63    47   102    1
    64    47   103    1
    65    48   104    1
    66    49   105    1
    67    49   106    1
    68    49   107    1
    69    50   108    1
    70    51    59    1
    71    52   109    1
    72    52   110    1
    73    52   111    1
    74    53    54    1
    75    54    55    2
    76    54    56    1
    77    56   112    1
    78    56   113    1
    79    56   114    1
    80    57   115    1
    81    57   116    1
    82    57   117    1
    83    58   118    1
    84    58   119    1
    85    58   120    1
    86    59   121    1
    87    59   122    1
    88    59   123    1
    89    60    61    2
    90     1    47    1
    91     1    62    1
    92     2    63    1
    93     3    64    1
    94     4    65    1
    95     5     6    1
    96     7     8    2
    97     9    78    1
    98    15    79    1
    99    18    80    1
   100    18    81    1
   101    19    82    1
   102    19    83    1
   103    20    23    1
   104    21    84    1
   105    21    85    1
   106    22    86    1
   107    22    87    1
   108    27    45    1
   109    28    34    1
   110    32    58    1
   111    33    46    2
   112    36    51    1
   113    36    66    1
   114    37    52    1
   115    37    67    1
   116    38    53    1
   117    38    68    1
   118    42    48    1
   119    42    72    1
   120    43    44    2
   121    60    73    1
   122    61    74    1
   123    39    69    1
   124    39    57    1
   125    40    70    1
   126    40    50    1
   127    41    71    1
   128    41    49    1
