@<TRIPOS>MOLECULE
*****
 123 128 0 0 0
SMALL
GASTEIGER

@<TRIPOS>ATOM
     1 C         5.13536   1.82754   0.547655 C.3        1 UNL1     0.0009
     2 C         6.553672   2.688721   -0.279264 C.2        1 UNL1     -0.0787
     3 C         7.840438   2.638209   -0.940876 C.2        1 UNL1     -0.0649
     4 C         8.687949   3.911432   -1.666812 C.2        1 UNL1     -0.0542
     5 C         9.703722   4.250256   -2.594434 C.2        1 UNL1     0.0115
     6 C         10.851662   3.672855   -3.467455 C.3        1 UNL1     -0.0348
     7 C         9.762214   5.747732   -3.169876 C.2        1 UNL1     0.2441
     8 O         10.562466   6.582873   -2.771553 O.2        1 UNL1     -0.2702
     9 N         9.011605   5.958961   -4.339542 N.am        1 UNL1     -0.2772
     10 C         7.717809   6.305058   -4.0239 C.2        1 UNL1     0.1049
     11 C         6.89687   5.305817   -3.755944 C.2        1 UNL1     0.0801
     12 C         6.371482   7.847352   -2.586518 C.ar        1 UNL1     0.0753
     13 C         5.640747   6.690773   -2.165853 C.ar        1 UNL1     0.0305
     14 C         5.794905   5.402234   -2.837384 C.2        1 UNL1     0.0924
     15 N         7.055327   3.984114   -3.941738 N.pl3        1 UNL1     -0.3170
     16 C         5.80051   3.345245   -3.645875 C.3        1 UNL1     0.1275
     17 N         5.134979   4.26288   -2.649511 N.2        1 UNL1     -0.2557
     18 C         4.951614   3.407873   -4.912033 C.3        1 UNL1     0.0016
     19 C         5.729009   2.767431   -6.050927 C.3        1 UNL1     0.0026
     20 N         6.033989   1.389265   -5.692214 N.3        1 UNL1     -0.3018
     21 C         6.796212   1.223511   -4.452895 C.3        1 UNL1     0.0026
     22 C         5.994822   1.869904   -3.321593 C.3        1 UNL1     0.0016
     23 C         6.504633   0.604864   -6.816426 C.3        1 UNL1     0.0012
     24 C         5.360266   0.345305   -7.808801 C.3        1 UNL1     -0.0339
     25 C         5.711044   0.853179   -9.217019 C.3        1 UNL1     -0.0615
     26 C         5.005096   -1.131353   -7.819492 C.3        1 UNL1     -0.0615
     27 C         6.13107   9.097775   -2.021926 C.ar        1 UNL1     0.1347
     28 C         5.161254   9.321999   -1.061077 C.ar        1 UNL1     0.0342
     29 C         4.488115   8.160141   -0.627334 C.ar        1 UNL1     0.1435
     30 C         4.743542   6.895077   -1.157984 C.ar        1 UNL1     0.0774
     31 O         3.44097   8.228509   0.223442 O.3        1 UNL1     -0.4436
     32 C         2.752813   6.980258   0.052613 C.3        1 UNL1     0.3143
     33 C         3.79426   6.025473   -0.495097 C.2        1 UNL1     0.2504
     34 C         4.676553   10.666426   -0.594514 C.3        1 UNL1     -0.0327
     35 O         2.398458   6.50708   1.357905 O.2        1 UNL1     -0.4528
     36 C         -0.790575   4.498517   0.906435 C.3        1 UNL1     0.0854
     37 C         -1.058665   3.249118   -0.01804 C.3        1 UNL1     0.0236
     38 C         -1.628825   1.956641   0.741015 C.3        1 UNL1     0.1131
     39 C         -0.894614   1.418288   2.034606 C.3        1 UNL1     0.0200
     40 C         0.769668   1.315852   2.08052 C.3        1 UNL1     0.0661
     41 C         1.753881   0.596942   0.900645 C.3        1 UNL1     0.0091
     42 C         3.453566   1.016051   0.352173 C.3        1 UNL1     0.0661
     43 C         7.331301   7.688019   -3.707062 C.2        1 UNL1     0.2131
     44 O         7.710195   8.610997   -4.405122 O.2        1 UNL1     -0.2851
     45 O         6.917497   10.163227   -2.455266 O.3        1 UNL1     -0.5056
     46 O         3.841604   4.820336   -0.388996 O.2        1 UNL1     -0.2836
     47 C         5.537045   1.379066   1.978565 C.3        1 UNL1     -0.0566
     48 O         3.939031   -0.384102   0.407048 O.3        1 UNL1     -0.3909
     49 C         0.93126   0.368061   -0.347715 C.3        1 UNL1     -0.0577
     50 O         1.335757   2.54077   2.501048 O.3        1 UNL1     -0.3910
     51 O         -0.915316   4.276933   2.293075 O.3        1 UNL1     -0.3753
     52 C         -0.005591   3.140128   -1.168738 C.3        1 UNL1     -0.0564
     53 O         -2.199974   0.92091   -0.182769 O.3        1 UNL1     -0.4608
     54 C         -2.369607   -0.405386   0.117385 C.2        1 UNL1     0.3042
     55 O         -1.668454   -1.348948   -0.245814 O.2        1 UNL1     -0.2512
     56 C         -3.524175   -0.670002   1.041325 C.3        1 UNL1     0.0332
     57 C         -1.6383   2.041814   3.305953 C.3        1 UNL1     -0.0567
     58 C         1.675968   7.219203   -1.031287 C.3        1 UNL1     0.0210
     59 C         -1.26269   5.431719   3.055745 C.3        1 UNL1     0.0372
     60 C         0.522219   5.167111   0.694977 C.2        1 UNL1     -0.0208
     61 C         1.419717   5.608257   1.577378 C.2        1 UNL1     0.0882
     62 H         4.633171   2.796788   0.652897 H        1 UNL1     0.0365
     63 H         6.259161   3.732721   -0.153584 H        1 UNL1     0.0576
     64 H         8.324459   1.688554   -1.179597 H        1 UNL1     0.0615
     65 H         8.175357   4.806288   -1.303543 H        1 UNL1     0.0622
     66 H         -1.553467   5.231364   0.608143 H        1 UNL1     0.0645
     67 H         -1.929588   3.548072   -0.626874 H        1 UNL1     0.0362
     68 H         -2.588578   2.360996   1.097236 H        1 UNL1     0.0741
     69 H         -1.200026   0.394968   2.207662 H        1 UNL1     0.0359
     70 H         0.895282   0.64065   2.948496 H        1 UNL1     0.0600
     71 H         1.822755   -0.431313   1.306729 H        1 UNL1     0.0348
     72 H         3.33076   1.480958   1.34116 H        1 UNL1     0.0602
     73 H         0.639103   5.388764   -0.336748 H        1 UNL1     0.0628
     74 H         1.403366   5.37516   2.642571 H        1 UNL1     0.1022
     75 H         10.874058   2.558501   -3.398561 H        1 UNL1     0.0279
     76 H         10.776755   3.839816   -4.539641 H        1 UNL1     0.0279
     77 H         11.849312   3.933807   -3.084964 H        1 UNL1     0.0279
     78 H         8.974835   5.098699   -4.882381 H        1 UNL1     0.1553
     79 H         7.734235   3.586679   -4.564684 H        1 UNL1     0.1484
     80 H         4.002891   2.88782   -4.73249 H        1 UNL1     0.0317
     81 H         4.698726   4.443653   -5.162747 H        1 UNL1     0.0317
     82 H         6.646276   3.328132   -6.283623 H        1 UNL1     0.0428
     83 H         5.106282   2.824442   -6.944241 H        1 UNL1     0.0428
     84 H         6.942857   0.17794   -4.164644 H        1 UNL1     0.0428
     85 H         7.816607   1.620684   -4.544345 H        1 UNL1     0.0428
     86 H         6.513965   1.614574   -2.41645 H        1 UNL1     0.0317
     87 H         5.027873   1.364087   -3.210891 H        1 UNL1     0.0317
     88 H         7.288218   1.178264   -7.328775 H        1 UNL1     0.0429
     89 H         6.960695   -0.336197   -6.482979 H        1 UNL1     0.0429
     90 H         4.460046   0.867399   -7.463496 H        1 UNL1     0.0308
     91 H         6.721134   0.550436   -9.508851 H        1 UNL1     0.0233
     92 H         4.996925   0.475883   -9.952743 H        1 UNL1     0.0233
     93 H         5.673854   1.947001   -9.287775 H        1 UNL1     0.0233
     94 H         4.410526   -1.370395   -8.707851 H        1 UNL1     0.0233
     95 H         5.916654   -1.734672   -7.851574 H        1 UNL1     0.0233
     96 H         4.428683   -1.409568   -6.932749 H        1 UNL1     0.0233
     97 H         3.827468   10.582798   0.077269 H        1 UNL1     0.0280
     98 H         5.447906   11.213875   -0.037226 H        1 UNL1     0.0280
     99 H         4.370848   11.270718   -1.464267 H        1 UNL1     0.0280
     100 H         6.434331   10.934468   -2.694765 H        1 UNL1     0.2922
     101 H         4.658003   1.015353   2.510218 H        1 UNL1     0.0236
     102 H         6.062808   2.151927   2.538246 H        1 UNL1     0.0236
     103 H         6.230302   0.521518   1.964479 H        1 UNL1     0.0236
     104 H         4.270646   -0.546054   1.311909 H        1 UNL1     0.2098
     105 H         0.737968   1.266079   -0.929104 H        1 UNL1     0.0234
     106 H         1.297347   -0.429184   -0.994482 H        1 UNL1     0.0234
     107 H         0.0   -0.0   0.0 H        1 UNL1     0.0234
     108 H         1.177227   3.192478   1.79118 H        1 UNL1     0.2098
     109 H         1.021444   3.058369   -0.786343 H        1 UNL1     0.0234
     110 H         -0.206407   2.313796   -1.859094 H        1 UNL1     0.0234
     111 H         -0.013742   4.031168   -1.810554 H        1 UNL1     0.0234
     112 H         -3.590831   -1.740809   1.256443 H        1 UNL1     0.0342
     113 H         -3.454233   -0.090428   1.960588 H        1 UNL1     0.0342
     114 H         -4.449057   -0.371209   0.528995 H        1 UNL1     0.0342
     115 H         -2.722088   1.864347   3.272813 H        1 UNL1     0.0234
     116 H         -1.272924   1.664626   4.263177 H        1 UNL1     0.0234
     117 H         -1.603817   3.144389   3.338808 H        1 UNL1     0.0234
     118 H         0.661232   7.282282   -0.600778 H        1 UNL1     0.0309
     119 H         1.864987   8.11242   -1.635139 H        1 UNL1     0.0309
     120 H         1.599023   6.385926   -1.738277 H        1 UNL1     0.0309
     121 H         -0.89081   5.281785   4.068948 H        1 UNL1     0.0524
     122 H         -0.794161   6.349275   2.662542 H        1 UNL1     0.0524
     123 H         -2.34089   5.563747   3.067902 H        1 UNL1     0.0524
@<TRIPOS>BOND
     1     1     2    1
     2     1    42    1
     3     2     3    2
     4     3     4    1
     5     4     5    2
     6     5     7    1
     7     6    75    1
     8     6    76    1
     9     6    77    1
    10     7     9   am
    11     9    10    1
    12    10    11    2
    13    10    43    1
    14    11    14    1
    15    11    15    1
    16    12    13   ar
    17    12    27   ar
    18    12    43    1
    19    13    14    1
    20    13    30   ar
    21    14    17    2
    22    15    16    1
    23    16    17    1
    24    16    18    1
    25    16    22    1
    26    18    19    1
    27    19    20    1
    28    20    21    1
    29    21    22    1
    30    23    24    1
    31    23    88    1
    32    23    89    1
    33    24    25    1
    34    24    26    1
    35    24    90    1
    36    25    91    1
    37    25    92    1
    38    25    93    1
    39    26    94    1
    40    26    95    1
    41    26    96    1
    42    27    28   ar
    43    28    29   ar
    44    29    30   ar
    45    29    31    1
    46    30    33    1
    47    31    32    1
    48    32    33    1
    49    32    35    1
    50    34    97    1
    51    34    98    1
    52    34    99    1
    53    35    61    1
    54    36    37    1
    55    36    60    1
    56    37    38    1
    57    38    39    1
    58    39    40    1
    59    40    41    1
    60    41    42    1
    61    45   100    1
    62    47   101    1
    63    47   102    1
    64    47   103    1
    65    48   104    1
    66    49   105    1
    67    49   106    1
    68    49   107    1
    69    50   108    1
    70    51    59    1
    71    52   109    1
    72    52   110    1
    73    52   111    1
    74    53    54    1
    75    54    55    2
    76    54    56    1
    77    56   112    1
    78    56   113    1
    79    56   114    1
    80    57   115    1
    81    57   116    1
    82    57   117    1
    83    58   118    1
    84    58   119    1
    85    58   120    1
    86    59   121    1
    87    59   122    1
    88    59   123    1
    89    60    61    2
    90     1    47    1
    91     1    62    1
    92     2    63    1
    93     3    64    1
    94     4    65    1
    95     5     6    1
    96     7     8    2
    97     9    78    1
    98    15    79    1
    99    18    80    1
   100    18    81    1
   101    19    82    1
   102    19    83    1
   103    20    23    1
   104    21    84    1
   105    21    85    1
   106    22    86    1
   107    22    87    1
   108    27    45    1
   109    28    34    1
   110    32    58    1
   111    33    46    2
   112    36    51    1
   113    36    66    1
   114    37    52    1
   115    37    67    1
   116    38    53    1
   117    38    68    1
   118    42    48    1
   119    42    72    1
   120    43    44    2
   121    60    73    1
   122    61    74    1
   123    39    69    1
   124    39    57    1
   125    40    70    1
   126    40    50    1
   127    41    71    1
   128    41    49    1
