@<TRIPOS>MOLECULE
*****
 123 128 0 0 0
SMALL
GASTEIGER

@<TRIPOS>ATOM
     1 C         -1.249526   3.176094   -4.161866 C.3        1 UNL1     0.0009
     2 C         -2.378526   3.313378   -5.625952 C.2        1 UNL1     -0.0787
     3 C         -2.582027   3.315305   -7.059351 C.2        1 UNL1     -0.0649
     4 C         -4.049056   3.37945   -7.902005 C.2        1 UNL1     -0.0542
     5 C         -4.689329   3.123221   -9.139533 C.2        1 UNL1     0.0115
     6 C         -4.444147   2.7548   -10.628652 C.3        1 UNL1     -0.0348
     7 C         -6.290394   3.013129   -9.177722 C.2        1 UNL1     0.2441
     8 O         -7.010151   3.91707   -9.579428 O.2        1 UNL1     -0.2702
     9 N         -6.796988   1.719007   -8.966154 N.am        1 UNL1     -0.2772
     10 C         -6.976115   1.487299   -7.621703 C.2        1 UNL1     0.1049
     11 C         -5.90514   1.10719   -6.948835 C.2        1 UNL1     0.0801
     12 C         -7.970523   2.481323   -5.55279 C.ar        1 UNL1     0.0753
     13 C         -6.709019   2.23564   -4.922825 C.ar        1 UNL1     0.0305
     14 C         -5.679506   1.420618   -5.563834 C.2        1 UNL1     0.0924
     15 N         -4.703124   0.70349   -7.394607 N.pl3        1 UNL1     -0.3170
     16 C         -3.948359   0.237088   -6.261888 C.3        1 UNL1     0.1275
     17 N         -4.505328   1.011106   -5.092099 N.2        1 UNL1     -0.2557
     18 C         -4.336364   -1.219922   -6.028917 C.3        1 UNL1     0.0016
     19 C         -4.090906   -1.999528   -7.310929 C.3        1 UNL1     0.0026
     20 N         -2.683662   -1.882614   -7.667335 N.3        1 UNL1     -0.3018
     21 C         -2.200855   -0.51253   -7.852097 C.3        1 UNL1     0.0026
     22 C         -2.453092   0.251115   -6.550899 C.3        1 UNL1     0.0016
     23 C         -2.282107   -2.822838   -8.694649 C.3        1 UNL1     0.0012
     24 C         -3.506553   -3.562623   -9.256082 C.3        1 UNL1     -0.0339
     25 C         -3.160412   -5.009738   -9.643511 C.3        1 UNL1     -0.0615
     26 C         -4.650014   -3.50945   -8.257858 C.3        1 UNL1     -0.0615
     27 C         -8.990644   3.156327   -4.886576 C.ar        1 UNL1     0.1347
     28 C         -8.881028   3.596435   -3.579541 C.ar        1 UNL1     0.0342
     29 C         -7.613355   3.386793   -2.996257 C.ar        1 UNL1     0.1435
     30 C         -6.570084   2.744247   -3.664043 C.ar        1 UNL1     0.0774
     31 O         -7.383133   3.660097   -1.693449 O.3        1 UNL1     -0.4436
     32 C         -6.207685   2.903626   -1.366421 C.3        1 UNL1     0.3143
     33 C         -5.502418   2.676313   -2.688215 C.2        1 UNL1     0.2504
     34 C         -10.008116   4.099117   -2.721007 C.3        1 UNL1     -0.0327
     35 O         -5.360062   3.75157   -0.581706 O.2        1 UNL1     -0.4528
     36 C         -3.423286   1.440435   1.723862 C.3        1 UNL1     0.0854
     37 C         -2.485011   0.226351   1.358952 C.3        1 UNL1     0.0236
     38 C         -1.002837   0.311585   1.965286 C.3        1 UNL1     0.1131
     39 C         -0.14684   1.62659   1.764534 C.3        1 UNL1     0.0200
     40 C         -0.11285   2.394813   0.284293 C.3        1 UNL1     0.0661
     41 C         0.186114   1.654858   -1.212603 C.3        1 UNL1     0.0091
     42 C         -0.452579   2.05308   -2.885592 C.3        1 UNL1     0.0661
     43 C         -8.188056   1.915001   -6.907123 C.2        1 UNL1     0.2131
     44 O         -9.290474   1.707314   -7.380703 O.2        1 UNL1     -0.2851
     45 O         -10.171311   3.394554   -5.587084 O.3        1 UNL1     -0.5056
     46 O         -4.321929   2.500943   -2.89204 O.2        1 UNL1     -0.2836
     47 C         -0.424141   4.480043   -3.993228 C.3        1 UNL1     -0.0566
     48 O         0.879104   1.985399   -3.534558 O.3        1 UNL1     -0.3909
     49 C         0.080683   0.155378   -1.045451 C.3        1 UNL1     -0.0577
     50 O         -1.187845   3.30498   0.167222 O.3        1 UNL1     -0.3910
     51 O         -2.803183   2.522304   2.381482 O.3        1 UNL1     -0.3753
     52 C         -2.763744   -0.311641   -0.082513 C.3        1 UNL1     -0.0564
     53 O         -0.254522   -0.988018   1.907134 O.3        1 UNL1     -0.4608
     54 C         0.520787   -1.504756   2.912026 C.2        1 UNL1     0.3042
     55 O         0.472236   -2.63985   3.3843 O.2        1 UNL1     -0.2512
     56 C         1.565826   -0.55073   3.416448 C.3        1 UNL1     0.0332
     57 C         -0.339245   2.531201   3.069461 C.3        1 UNL1     -0.0567
     58 C         -6.700731   1.542153   -0.82344 C.3        1 UNL1     0.0210
     59 C         -3.669483   3.296363   3.209868 C.3        1 UNL1     0.0372
     60 C         -4.184653   2.012692   0.580183 C.2        1 UNL1     -0.0208
     61 C         -4.391817   3.282382   0.228449 C.2        1 UNL1     0.0882
     62 H         -2.122088   3.270804   -3.504312 H        1 UNL1     0.0365
     63 H         -3.326244   3.537503   -5.13192 H        1 UNL1     0.0576
     64 H         -1.766096   3.10238   -7.753633 H        1 UNL1     0.0615
     65 H         -4.775129   3.673351   -7.139166 H        1 UNL1     0.0622
     66 H         -4.174933   1.013989   2.402993 H        1 UNL1     0.0645
     67 H         -2.907067   -0.619452   1.92908 H        1 UNL1     0.0362
     68 H         -1.241374   0.279848   3.039351 H        1 UNL1     0.0741
     69 H         0.895674   1.392527   1.934198 H        1 UNL1     0.0359
     70 H         0.778648   3.03602   0.422662 H        1 UNL1     0.0600
     71 H         1.283618   1.789213   -1.278863 H        1 UNL1     0.0348
     72 H         -0.604156   2.958226   -2.279745 H        1 UNL1     0.0602
     73 H         -4.701431   1.232194   0.079173 H        1 UNL1     0.0628
     74 H         -3.859051   4.134399   0.652081 H        1 UNL1     0.1022
     75 H         -3.638444   3.394372   -11.063191 H        1 UNL1     0.0279
     76 H         -4.07747   1.749931   -10.825769 H        1 UNL1     0.0279
     77 H         -5.296151   3.009957   -11.27571 H        1 UNL1     0.0279
     78 H         -6.130607   1.030462   -9.30955 H        1 UNL1     0.1553
     79 H         -4.535593   0.380625   -8.329821 H        1 UNL1     0.1484
     80 H         -3.743137   -1.619327   -5.197458 H        1 UNL1     0.0317
     81 H         -5.387418   -1.302284   -5.732013 H        1 UNL1     0.0317
     82 H         -4.736954   -1.650311   -8.12982 H        1 UNL1     0.0428
     83 H         -4.37581   -3.035204   -7.123166 H        1 UNL1     0.0428
     84 H         -1.124616   -0.448345   -8.040246 H        1 UNL1     0.0428
     85 H         -2.654387   -0.034365   -8.731293 H        1 UNL1     0.0428
     86 H         -1.970391   1.202686   -6.675397 H        1 UNL1     0.0317
     87 H         -1.892609   -0.212279   -5.729789 H        1 UNL1     0.0317
     88 H         -1.811206   -2.257726   -9.509631 H        1 UNL1     0.0429
     89 H         -1.531375   -3.529124   -8.317373 H        1 UNL1     0.0429
     90 H         -3.864547   -3.03797   -10.149834 H        1 UNL1     0.0308
     91 H         -2.483611   -5.040424   -10.502639 H        1 UNL1     0.0233
     92 H         -2.698295   -5.534396   -8.803994 H        1 UNL1     0.0233
     93 H         -4.048274   -5.592613   -9.916994 H        1 UNL1     0.0233
     94 H         -4.380571   -2.872442   -7.408471 H        1 UNL1     0.0233
     95 H         -5.539106   -3.082784   -8.730546 H        1 UNL1     0.0233
     96 H         -4.895373   -4.505448   -7.878709 H        1 UNL1     0.0233
     97 H         -9.692673   4.276243   -1.697116 H        1 UNL1     0.0280
     98 H         -10.408412   5.055565   -3.081876 H        1 UNL1     0.0280
     99 H         -10.822068   3.355872   -2.708161 H        1 UNL1     0.0280
     100 H         -10.434958   2.695443   -6.159235 H        1 UNL1     0.2922
     101 H         -0.823834   5.063536   -3.164109 H        1 UNL1     0.0236
     102 H         -0.35538   5.065351   -4.909563 H        1 UNL1     0.0236
     103 H         0.62218   4.2744   -3.711954 H        1 UNL1     0.0236
     104 H         1.202173   2.901496   -3.641154 H        1 UNL1     0.2098
     105 H         -0.792827   -0.288671   -1.516207 H        1 UNL1     0.0234
     106 H         0.979255   -0.397581   -1.318822 H        1 UNL1     0.0234
     107 H         0.0   -0.0   0.0 H        1 UNL1     0.0234
     108 H         -1.258568   3.550711   -0.775319 H        1 UNL1     0.2098
     109 H         -3.024773   0.493296   -0.783692 H        1 UNL1     0.0234
     110 H         -1.933896   -0.898474   -0.490831 H        1 UNL1     0.0234
     111 H         -3.613986   -1.006481   -0.097797 H        1 UNL1     0.0234
     112 H         2.161034   -1.030606   4.199258 H        1 UNL1     0.0342
     113 H         2.201936   -0.178733   2.614684 H        1 UNL1     0.0342
     114 H         1.05471   0.312899   3.86374 H        1 UNL1     0.0342
     115 H         0.56669   3.106643   3.304697 H        1 UNL1     0.0234
     116 H         -1.168695   3.237904   3.001389 H        1 UNL1     0.0234
     117 H         -0.466163   1.945348   3.996073 H        1 UNL1     0.0234
     118 H         -6.588953   1.467808   0.272455 H        1 UNL1     0.0309
     119 H         -7.738542   1.322352   -1.093323 H        1 UNL1     0.0309
     120 H         -6.105929   0.700849   -1.19563 H        1 UNL1     0.0309
     121 H         -4.214999   3.984272   2.56446 H        1 UNL1     0.0524
     122 H         -4.412842   2.673673   3.734949 H        1 UNL1     0.0524
     123 H         -3.091473   3.850062   3.944318 H        1 UNL1     0.0524
@<TRIPOS>BOND
     1     1     2    1
     2     1    42    1
     3     2     3    2
     4     3     4    1
     5     4     5    2
     6     5     7    1
     7     6    75    1
     8     6    76    1
     9     6    77    1
    10     7     9   am
    11     9    10    1
    12    10    11    2
    13    10    43    1
    14    11    14    1
    15    11    15    1
    16    12    13   ar
    17    12    27   ar
    18    12    43    1
    19    13    14    1
    20    13    30   ar
    21    14    17    2
    22    15    16    1
    23    16    17    1
    24    16    18    1
    25    16    22    1
    26    18    19    1
    27    19    20    1
    28    20    21    1
    29    21    22    1
    30    23    24    1
    31    23    88    1
    32    23    89    1
    33    24    25    1
    34    24    26    1
    35    24    90    1
    36    25    91    1
    37    25    92    1
    38    25    93    1
    39    26    94    1
    40    26    95    1
    41    26    96    1
    42    27    28   ar
    43    28    29   ar
    44    29    30   ar
    45    29    31    1
    46    30    33    1
    47    31    32    1
    48    32    33    1
    49    32    35    1
    50    34    97    1
    51    34    98    1
    52    34    99    1
    53    35    61    1
    54    36    37    1
    55    36    60    1
    56    37    38    1
    57    38    39    1
    58    39    40    1
    59    40    41    1
    60    41    42    1
    61    45   100    1
    62    47   101    1
    63    47   102    1
    64    47   103    1
    65    48   104    1
    66    49   105    1
    67    49   106    1
    68    49   107    1
    69    50   108    1
    70    51    59    1
    71    52   109    1
    72    52   110    1
    73    52   111    1
    74    53    54    1
    75    54    55    2
    76    54    56    1
    77    56   112    1
    78    56   113    1
    79    56   114    1
    80    57   115    1
    81    57   116    1
    82    57   117    1
    83    58   118    1
    84    58   119    1
    85    58   120    1
    86    59   121    1
    87    59   122    1
    88    59   123    1
    89    60    61    2
    90     1    47    1
    91     1    62    1
    92     2    63    1
    93     3    64    1
    94     4    65    1
    95     5     6    1
    96     7     8    2
    97     9    78    1
    98    15    79    1
    99    18    80    1
   100    18    81    1
   101    19    82    1
   102    19    83    1
   103    20    23    1
   104    21    84    1
   105    21    85    1
   106    22    86    1
   107    22    87    1
   108    27    45    1
   109    28    34    1
   110    32    58    1
   111    33    46    2
   112    36    51    1
   113    36    66    1
   114    37    52    1
   115    37    67    1
   116    38    53    1
   117    38    68    1
   118    42    48    1
   119    42    72    1
   120    43    44    2
   121    60    73    1
   122    61    74    1
   123    39    69    1
   124    39    57    1
   125    40    70    1
   126    40    50    1
   127    41    71    1
   128    41    49    1
