@<TRIPOS>MOLECULE
*****
 123 128 0 0 0
SMALL
GASTEIGER

@<TRIPOS>ATOM
     1 C         -1.582006   3.775397   -0.517834 C.3        1 UNL1     0.0009
     2 C         -3.062005   4.25927   -1.524069 C.2        1 UNL1     -0.0787
     3 C         -3.634978   4.747521   -2.760742 C.2        1 UNL1     -0.0649
     4 C         -5.27316   4.888695   -3.164212 C.2        1 UNL1     -0.0542
     5 C         -6.201089   5.002614   -4.22866 C.2        1 UNL1     0.0115
     6 C         -6.336059   5.238033   -5.758262 C.3        1 UNL1     -0.0348
     7 C         -7.747252   4.672861   -3.950038 C.2        1 UNL1     0.2441
     8 O         -8.596109   5.540799   -3.799531 O.2        1 UNL1     -0.2702
     9 N         -8.10809   3.328937   -4.149572 N.am        1 UNL1     -0.2772
     10 C         -7.914365   2.603438   -2.996557 C.2        1 UNL1     0.1049
     11 C         -6.684857   2.172847   -2.779481 C.2        1 UNL1     0.0801
     12 C         -8.383216   2.621163   -0.539485 C.ar        1 UNL1     0.0753
     13 C         -6.988891   2.358586   -0.351024 C.ar        1 UNL1     0.0305
     14 C         -6.120713   1.995619   -1.468867 C.2        1 UNL1     0.0924
     15 N         -5.621919   2.144048   -3.601588 N.pl3        1 UNL1     -0.3170
     16 C         -4.57133   1.420261   -2.936269 C.3        1 UNL1     0.1275
     17 N         -4.84305   1.626164   -1.466066 N.2        1 UNL1     -0.2557
     18 C         -4.803311   -0.063346   -3.206078 C.3        1 UNL1     0.0016
     19 C         -4.860845   -0.281021   -4.709705 C.3        1 UNL1     0.0026
     20 N         -3.605496   0.168082   -5.295737 N.3        1 UNL1     -0.3018
     21 C         -3.26472   1.568639   -5.037511 C.3        1 UNL1     0.0026
     22 C         -3.207789   1.763677   -3.521393 C.3        1 UNL1     0.0016
     23 C         -3.436835   -0.265701   -6.668336 C.3        1 UNL1     0.0012
     24 C         -3.198768   -1.782763   -6.728383 C.3        1 UNL1     -0.0339
     25 C         -2.245843   -2.157505   -7.87536 C.3        1 UNL1     -0.0615
     26 C         -2.685498   -2.282777   -5.389234 C.3        1 UNL1     -0.0615
     27 C         -9.227983   2.847602   0.544587 C.ar        1 UNL1     0.1347
     28 C         -8.80309   2.797536   1.860265 C.ar        1 UNL1     0.0342
     29 C         -7.417086   2.585905   2.019549 C.ar        1 UNL1     0.1435
     30 C         -6.552227   2.393406   0.941503 C.ar        1 UNL1     0.0774
     31 O         -6.867915   2.402108   3.240055 O.3        1 UNL1     -0.4436
     32 C         -5.607901   1.76577   2.978689 C.3        1 UNL1     0.3143
     33 C         -5.263507   2.140269   1.551329 C.2        1 UNL1     0.2504
     34 C         -9.690808   2.779808   3.073419 C.3        1 UNL1     -0.0327
     35 O         -4.631988   2.391161   3.821145 O.2        1 UNL1     -0.4528
     36 C         -2.032558   -0.274689   4.558912 C.3        1 UNL1     0.0854
     37 C         -1.157625   -1.118337   3.553788 C.3        1 UNL1     0.0236
     38 C         0.424759   -1.034471   3.800305 C.3        1 UNL1     0.1131
     39 C         1.123846   0.377628   3.940039 C.3        1 UNL1     0.0200
     40 C         0.724973   1.623908   2.905571 C.3        1 UNL1     0.0661
     41 C         0.660293   1.52836   1.213147 C.3        1 UNL1     0.0091
     42 C         -0.416763   2.40193   0.012218 C.3        1 UNL1     0.0661
     43 C         -8.91752   2.55582   -1.922421 C.2        1 UNL1     0.2131
     44 O         -10.092441   2.36881   -2.181891 O.2        1 UNL1     -0.2851
     45 O         -10.562578   3.141004   0.272169 O.3        1 UNL1     -0.5056
     46 O         -4.170311   2.231028   1.038943 O.2        1 UNL1     -0.2836
     47 C         -0.814682   5.03939   -0.045059 C.3        1 UNL1     -0.0566
     48 O         0.699088   2.7753   -0.890327 O.3        1 UNL1     -0.3909
     49 C         0.68554   0.072172   0.805261 C.3        1 UNL1     -0.0577
     50 O         -0.391575   2.341117   3.392042 O.3        1 UNL1     -0.3910
     51 O         -1.322141   0.577418   5.42877 O.3        1 UNL1     -0.3753
     52 C         -1.775353   -1.135425   2.117449 C.3        1 UNL1     -0.0564
     53 O         1.202089   -2.096255   3.078711 O.3        1 UNL1     -0.4608
     54 C         2.43114   -1.925165   2.497254 C.2        1 UNL1     0.3042
     55 O         2.678412   -1.789475   1.299638 O.2        1 UNL1     -0.2512
     56 C         3.558894   -1.847231   3.486603 C.3        1 UNL1     0.0332
     57 C         1.231599   0.710098   5.500817 C.3        1 UNL1     -0.0567
     58 C         -5.864837   0.242319   3.046603 C.3        1 UNL1     0.0210
     59 C         -1.286572   0.150168   6.789673 C.3        1 UNL1     0.0372
     60 C         -3.098237   0.549469   3.926257 C.2        1 UNL1     -0.0208
     61 C         -3.460417   1.813508   4.149362 C.2        1 UNL1     0.0882
     62 H         -2.25485   3.49326   0.30094 H        1 UNL1     0.0365
     63 H         -3.857383   4.143869   -0.784796 H        1 UNL1     0.0576
     64 H         -3.019807   4.925556   -3.645601 H        1 UNL1     0.0615
     65 H         -5.788226   4.774035   -2.206589 H        1 UNL1     0.0622
     66 H         -2.554461   -1.025922   5.168267 H        1 UNL1     0.0645
     67 H         -1.367539   -2.166291   3.829992 H        1 UNL1     0.0362
     68 H         0.479123   -1.487358   4.802033 H        1 UNL1     0.0741
     69 H         2.185574   0.25872   3.769743 H        1 UNL1     0.0359
     70 H         1.584644   2.298928   3.079855 H        1 UNL1     0.0600
     71 H         1.692606   1.841952   0.962255 H        1 UNL1     0.0348
     72 H         -0.453503   2.993343   0.938608 H        1 UNL1     0.0602
     73 H         -3.684607   -0.06618   3.290337 H        1 UNL1     0.0628
     74 H         -2.882942   2.525316   4.7402 H        1 UNL1     0.1022
     75 H         -5.70956   6.105312   -6.0782 H        1 UNL1     0.0279
     76 H         -5.979158   4.439893   -6.405305 H        1 UNL1     0.0279
     77 H         -7.340956   5.57745   -6.049258 H        1 UNL1     0.0279
     78 H         -7.518441   2.920027   -4.871503 H        1 UNL1     0.1553
     79 H         -5.688579   2.209759   -4.600674 H        1 UNL1     0.1484
     80 H         -3.991228   -0.641203   -2.74851 H        1 UNL1     0.0317
     81 H         -5.733118   -0.405294   -2.738978 H        1 UNL1     0.0317
     82 H         -5.717731   0.238121   -5.163743 H        1 UNL1     0.0428
     83 H         -5.028683   -1.344978   -4.879641 H        1 UNL1     0.0428
     84 H         -2.281058   1.858424   -5.419929 H        1 UNL1     0.0428
     85 H         -3.959146   2.257336   -5.538296 H        1 UNL1     0.0428
     86 H         -2.828146   2.757328   -3.37134 H        1 UNL1     0.0317
     87 H         -2.426431   1.125715   -3.090603 H        1 UNL1     0.0317
     88 H         -4.3603   -0.034928   -7.215373 H        1 UNL1     0.0429
     89 H         -2.624578   0.28247   -7.162827 H        1 UNL1     0.0429
     90 H         -4.156935   -2.290568   -6.890445 H        1 UNL1     0.0308
     91 H         -1.371248   -1.500439   -7.896575 H        1 UNL1     0.0233
     92 H         -1.913616   -3.193783   -7.778601 H        1 UNL1     0.0233
     93 H         -2.725385   -2.080678   -8.858707 H        1 UNL1     0.0233
     94 H         -2.157961   -3.234038   -5.518241 H        1 UNL1     0.0233
     95 H         -1.980974   -1.561271   -4.966105 H        1 UNL1     0.0233
     96 H         -3.503763   -2.434851   -4.679809 H        1 UNL1     0.0233
     97 H         -9.531013   1.894987   3.682342 H        1 UNL1     0.0280
     98 H         -9.505759   3.636786   3.734178 H        1 UNL1     0.0280
     99 H         -10.746951   2.796214   2.758159 H        1 UNL1     0.0280
     100 H         -10.691743   3.812137   -0.374761 H        1 UNL1     0.2922
     101 H         -1.013943   5.216689   1.011594 H        1 UNL1     0.0236
     102 H         -1.0217   5.919105   -0.653523 H        1 UNL1     0.0236
     103 H         0.278487   4.906936   -0.105323 H        1 UNL1     0.0236
     104 H         1.466077   3.006996   -0.330848 H        1 UNL1     0.2098
     105 H         1.651954   -0.278559   0.451929 H        1 UNL1     0.0234
     106 H         0.282528   -0.615899   1.548273 H        1 UNL1     0.0234
     107 H         0.0   -0.0   0.0 H        1 UNL1     0.0234
     108 H         -0.372314   2.281737   4.366655 H        1 UNL1     0.2098
     109 H         -2.778412   -1.584117   2.101333 H        1 UNL1     0.0234
     110 H         -1.809663   -0.144562   1.651878 H        1 UNL1     0.0234
     111 H         -1.170515   -1.734639   1.423864 H        1 UNL1     0.0234
     112 H         4.505348   -1.689982   2.960444 H        1 UNL1     0.0342
     113 H         3.394548   -1.073279   4.234822 H        1 UNL1     0.0342
     114 H         3.62158   -2.810161   4.01196 H        1 UNL1     0.0342
     115 H         2.134328   1.291742   5.73311 H        1 UNL1     0.0234
     116 H         0.375738   1.259615   5.897783 H        1 UNL1     0.0234
     117 H         1.385235   -0.182636   6.131184 H        1 UNL1     0.0234
     118 H         -5.39156   -0.218931   3.93106 H        1 UNL1     0.0309
     119 H         -6.928745   -0.014895   3.034683 H        1 UNL1     0.0309
     120 H         -5.412819   -0.298015   2.207661 H        1 UNL1     0.0309
     121 H         -1.148601   1.035547   7.409693 H        1 UNL1     0.0524
     122 H         -2.228665   -0.330356   7.102074 H        1 UNL1     0.0524
     123 H         -0.467452   -0.546574   6.943582 H        1 UNL1     0.0524
@<TRIPOS>BOND
     1     1     2    1
     2     1    42    1
     3     2     3    2
     4     3     4    1
     5     4     5    2
     6     5     7    1
     7     6    75    1
     8     6    76    1
     9     6    77    1
    10     7     9   am
    11     9    10    1
    12    10    11    2
    13    10    43    1
    14    11    14    1
    15    11    15    1
    16    12    13   ar
    17    12    27   ar
    18    12    43    1
    19    13    14    1
    20    13    30   ar
    21    14    17    2
    22    15    16    1
    23    16    17    1
    24    16    18    1
    25    16    22    1
    26    18    19    1
    27    19    20    1
    28    20    21    1
    29    21    22    1
    30    23    24    1
    31    23    88    1
    32    23    89    1
    33    24    25    1
    34    24    26    1
    35    24    90    1
    36    25    91    1
    37    25    92    1
    38    25    93    1
    39    26    94    1
    40    26    95    1
    41    26    96    1
    42    27    28   ar
    43    28    29   ar
    44    29    30   ar
    45    29    31    1
    46    30    33    1
    47    31    32    1
    48    32    33    1
    49    32    35    1
    50    34    97    1
    51    34    98    1
    52    34    99    1
    53    35    61    1
    54    36    37    1
    55    36    60    1
    56    37    38    1
    57    38    39    1
    58    39    40    1
    59    40    41    1
    60    41    42    1
    61    45   100    1
    62    47   101    1
    63    47   102    1
    64    47   103    1
    65    48   104    1
    66    49   105    1
    67    49   106    1
    68    49   107    1
    69    50   108    1
    70    51    59    1
    71    52   109    1
    72    52   110    1
    73    52   111    1
    74    53    54    1
    75    54    55    2
    76    54    56    1
    77    56   112    1
    78    56   113    1
    79    56   114    1
    80    57   115    1
    81    57   116    1
    82    57   117    1
    83    58   118    1
    84    58   119    1
    85    58   120    1
    86    59   121    1
    87    59   122    1
    88    59   123    1
    89    60    61    2
    90     1    47    1
    91     1    62    1
    92     2    63    1
    93     3    64    1
    94     4    65    1
    95     5     6    1
    96     7     8    2
    97     9    78    1
    98    15    79    1
    99    18    80    1
   100    18    81    1
   101    19    82    1
   102    19    83    1
   103    20    23    1
   104    21    84    1
   105    21    85    1
   106    22    86    1
   107    22    87    1
   108    27    45    1
   109    28    34    1
   110    32    58    1
   111    33    46    2
   112    36    51    1
   113    36    66    1
   114    37    52    1
   115    37    67    1
   116    38    53    1
   117    38    68    1
   118    42    48    1
   119    42    72    1
   120    43    44    2
   121    60    73    1
   122    61    74    1
   123    39    69    1
   124    39    57    1
   125    40    70    1
   126    40    50    1
   127    41    71    1
   128    41    49    1
