@<TRIPOS>MOLECULE
*****
 123 128 0 0 0
SMALL
GASTEIGER

@<TRIPOS>ATOM
     1 C         -3.120854   -2.631357   -1.394156 C.3        1 UNL1     0.0009
     2 C         -3.453599   -4.427926   -1.080062 C.2        1 UNL1     -0.0787
     3 C         -3.22532   -5.821878   -1.397605 C.2        1 UNL1     -0.0649
     4 C         -3.805535   -7.184521   -0.577293 C.2        1 UNL1     -0.0542
     5 C         -3.619822   -8.570937   -0.352701 C.2        1 UNL1     0.0115
     6 C         -2.847262   -9.829586   -0.834652 C.3        1 UNL1     -0.0348
     7 C         -4.304523   -9.248459   0.931486 C.2        1 UNL1     0.2441
     8 O         -5.324998   -9.919827   0.864995 O.2        1 UNL1     -0.2702
     9 N         -3.514481   -9.238557   2.094193 N.am        1 UNL1     -0.2772
     10 C         -3.717055   -8.076423   2.802523 C.2        1 UNL1     0.1049
     11 C         -3.026712   -7.023657   2.403361 C.2        1 UNL1     0.0801
     12 C         -5.516503   -6.598281   3.715987 C.ar        1 UNL1     0.0753
     13 C         -4.835708   -5.510203   3.082573 C.ar        1 UNL1     0.0305
     14 C         -3.497973   -5.669996   2.516903 C.2        1 UNL1     0.0924
     15 N         -1.994835   -6.941718   1.546014 N.pl3        1 UNL1     -0.3170
     16 C         -1.493019   -5.593939   1.589936 C.3        1 UNL1     0.1275
     17 N         -2.685981   -4.759347   1.987455 N.2        1 UNL1     -0.2557
     18 C         -0.512814   -5.514196   2.756358 C.3        1 UNL1     0.0016
     19 C         0.557736   -6.576777   2.565481 C.3        1 UNL1     0.0026
     20 N         1.232344   -6.33854   1.296948 N.3        1 UNL1     -0.3018
     21 C         0.360629   -6.334657   0.120314 C.3        1 UNL1     0.0026
     22 C         -0.704252   -5.256995   0.33142 C.3        1 UNL1     0.0016
     23 C         2.455888   -7.102678   1.156679 C.3        1 UNL1     0.0012
     24 C         3.648053   -6.167946   0.898273 C.3        1 UNL1     -0.0339
     25 C         3.691657   -5.017298   1.917177 C.3        1 UNL1     -0.0615
     26 C         4.942284   -6.96277   0.89694 C.3        1 UNL1     -0.0615
     27 C         -6.737773   -6.409462   4.358611 C.ar        1 UNL1     0.1347
     28 C         -7.354496   -5.17582   4.467379 C.ar        1 UNL1     0.0342
     29 C         -6.690218   -4.128549   3.794237 C.ar        1 UNL1     0.1435
     30 C         -5.484494   -4.309995   3.115616 C.ar        1 UNL1     0.0774
     31 O         -7.1066   -2.847652   3.898814 O.3        1 UNL1     -0.4436
     32 C         -5.96915   -2.063557   3.50859 C.3        1 UNL1     0.3143
     33 C         -5.127793   -2.986101   2.64996 C.2        1 UNL1     0.2504
     34 C         -8.527731   -4.851333   5.349607 C.3        1 UNL1     -0.0327
     35 O         -6.446089   -1.017368   2.653447 O.2        1 UNL1     -0.4528
     36 C         -4.083772   1.908257   3.171395 C.3        1 UNL1     0.0854
     37 C         -2.519031   1.970669   2.983744 C.3        1 UNL1     0.0236
     38 C         -2.002529   3.120775   1.992671 C.3        1 UNL1     0.1131
     39 C         -2.641077   3.261051   0.552237 C.3        1 UNL1     0.0200
     40 C         -2.929331   1.907886   -0.379585 C.3        1 UNL1     0.0661
     41 C         -1.816389   0.669532   -0.704313 C.3        1 UNL1     0.0091
     42 C         -2.079627   -1.125005   -0.979538 C.3        1 UNL1     0.0661
     43 C         -4.83582   -7.916682   3.743374 C.2        1 UNL1     0.2131
     44 O         -5.093543   -8.790556   4.551248 O.2        1 UNL1     -0.2851
     45 O         -7.356387   -7.529465   4.910288 O.3        1 UNL1     -0.5056
     46 O         -4.354012   -2.694909   1.76547 O.2        1 UNL1     -0.2836
     47 C         -3.850131   -2.165113   -2.682859 C.3        1 UNL1     -0.0566
     48 O         -1.21969   -1.182095   -2.186337 O.3        1 UNL1     -0.3909
     49 C         -0.646633   0.803398   0.245026 C.3        1 UNL1     -0.0577
     50 O         -4.19492   1.354006   -0.080883 O.3        1 UNL1     -0.3910
     51 O         -4.839723   2.742922   2.323278 O.3        1 UNL1     -0.3753
     52 C         -1.87215   0.547446   3.014271 C.3        1 UNL1     -0.0564
     53 O         -0.529764   3.38886   2.099534 O.3        1 UNL1     -0.4608
     54 C         0.402388   2.518923   2.601759 C.2        1 UNL1     0.3042
     55 O         1.626717   2.603802   2.51428 O.2        1 UNL1     -0.2512
     56 C         -0.194377   1.383749   3.384041 C.3        1 UNL1     0.0332
     57 C         -3.795894   4.364013   0.641948 C.3        1 UNL1     -0.0567
     58 C         -5.192117   -1.743806   4.806861 C.3        1 UNL1     0.0210
     59 C         -5.594718   2.057443   1.325297 C.3        1 UNL1     0.0372
     60 C         -4.675254   0.546145   3.071584 C.2        1 UNL1     -0.0208
     61 C         -5.762913   0.121106   2.427314 C.2        1 UNL1     0.0882
     62 H         -3.780087   -2.382072   -0.553929 H        1 UNL1     0.0365
     63 H         -4.220848   -4.360572   -0.305941 H        1 UNL1     0.0576
     64 H         -2.486107   -6.125733   -2.142147 H        1 UNL1     0.0615
     65 H         -4.584452   -6.783013   0.076589 H        1 UNL1     0.0622
     66 H         -4.250695   2.234043   4.207757 H        1 UNL1     0.0645
     67 H         -2.146698   2.335826   3.956672 H        1 UNL1     0.0362
     68 H         -2.340087   4.008403   2.549171 H        1 UNL1     0.0741
     69 H         -1.971645   3.839499   -0.070392 H        1 UNL1     0.0359
     70 H         -3.062302   2.383322   -1.370211 H        1 UNL1     0.0600
     71 H         -1.375252   1.048435   -1.647068 H        1 UNL1     0.0348
     72 H         -3.054004   -0.64551   -1.152713 H        1 UNL1     0.0602
     73 H         -4.157845   -0.108274   3.728296 H        1 UNL1     0.0628
     74 H         -6.314766   0.710022   1.693915 H        1 UNL1     0.1022
     75 H         -3.475465   -10.744998   -0.714584 H        1 UNL1     0.0279
     76 H         -2.583969   -9.862852   -1.889469 H        1 UNL1     0.0279
     77 H         -1.986717   -10.071623   -0.193886 H        1 UNL1     0.0279
     78 H         -2.529766   -9.274027   1.838936 H        1 UNL1     0.1553
     79 H         -1.42612   -7.725316   1.282443 H        1 UNL1     0.1484
     80 H         -0.077282   -4.508216   2.789225 H        1 UNL1     0.0317
     81 H         -1.027904   -5.664101   3.711273 H        1 UNL1     0.0317
     82 H         0.135553   -7.59173   2.604783 H        1 UNL1     0.0428
     83 H         1.244922   -6.503471   3.408958 H        1 UNL1     0.0428
     84 H         0.878333   -6.074789   -0.808266 H        1 UNL1     0.0428
     85 H         -0.06152   -7.329342   -0.078956 H        1 UNL1     0.0428
     86 H         -1.23822   -5.191492   -0.598406 H        1 UNL1     0.0317
     87 H         -0.228646   -4.272669   0.420846 H        1 UNL1     0.0317
     88 H         2.631685   -7.641571   2.096884 H        1 UNL1     0.0429
     89 H         2.365918   -7.857782   0.365163 H        1 UNL1     0.0429
     90 H         3.557989   -5.740566   -0.107435 H        1 UNL1     0.0308
     91 H         2.709341   -4.548998   2.030544 H        1 UNL1     0.0233
     92 H         4.03229   -5.376462   2.891128 H        1 UNL1     0.0233
     93 H         4.389863   -4.224589   1.622297 H        1 UNL1     0.0233
     94 H         5.799643   -6.288618   0.998384 H        1 UNL1     0.0233
     95 H         4.956189   -7.655518   1.74303 H        1 UNL1     0.0233
     96 H         5.059093   -7.533539   -0.028558 H        1 UNL1     0.0233
     97 H         -8.305934   -4.044981   6.042307 H        1 UNL1     0.0280
     98 H         -9.400589   -4.519864   4.772109 H        1 UNL1     0.0280
     99 H         -8.807019   -5.742688   5.934911 H        1 UNL1     0.0280
     100 H         -7.512993   -7.473789   5.83657 H        1 UNL1     0.2922
     101 H         -3.281576   -1.366247   -3.158479 H        1 UNL1     0.0236
     102 H         -4.887639   -1.881405   -2.509451 H        1 UNL1     0.0236
     103 H         -3.90022   -2.963314   -3.442173 H        1 UNL1     0.0236
     104 H         -1.045673   -2.123953   -2.380226 H        1 UNL1     0.2098
     105 H         -0.084471   1.727641   0.137511 H        1 UNL1     0.0234
     106 H         -0.888479   0.62809   1.293217 H        1 UNL1     0.0234
     107 H         0.0   0.0   0.0 H        1 UNL1     0.0234
     108 H         -4.787402   1.56452   -0.828156 H        1 UNL1     0.2098
     109 H         -1.698125   0.147891   2.005419 H        1 UNL1     0.0234
     110 H         -0.940332   0.510441   3.588805 H        1 UNL1     0.0234
     111 H         -2.522644   -0.182131   3.514792 H        1 UNL1     0.0234
     112 H         -1.276648   1.351289   3.225988 H        1 UNL1     0.0342
     113 H         0.265619   0.42856   3.135321 H        1 UNL1     0.0342
     114 H         -0.015427   1.571402   4.451715 H        1 UNL1     0.0342
     115 H         -4.53596   4.246746   -0.161631 H        1 UNL1     0.0234
     116 H         -4.337614   4.363492   1.589887 H        1 UNL1     0.0234
     117 H         -3.438663   5.391221   0.45441 H        1 UNL1     0.0234
     118 H         -5.23038   -2.578037   5.52908 H        1 UNL1     0.0309
     119 H         -4.146734   -1.473921   4.626473 H        1 UNL1     0.0309
     120 H         -5.629459   -0.907679   5.363396 H        1 UNL1     0.0309
     121 H         -6.316143   2.763413   0.914797 H        1 UNL1     0.0524
     122 H         -4.9641   1.70502   0.492137 H        1 UNL1     0.0524
     123 H         -6.10977   1.206526   1.762053 H        1 UNL1     0.0524
@<TRIPOS>BOND
     1     1     2    1
     2     1    42    1
     3     2     3    2
     4     3     4    1
     5     4     5    2
     6     5     7    1
     7     6    75    1
     8     6    76    1
     9     6    77    1
    10     7     9   am
    11     9    10    1
    12    10    11    2
    13    10    43    1
    14    11    14    1
    15    11    15    1
    16    12    13   ar
    17    12    27   ar
    18    12    43    1
    19    13    14    1
    20    13    30   ar
    21    14    17    2
    22    15    16    1
    23    16    17    1
    24    16    18    1
    25    16    22    1
    26    18    19    1
    27    19    20    1
    28    20    21    1
    29    21    22    1
    30    23    24    1
    31    23    88    1
    32    23    89    1
    33    24    25    1
    34    24    26    1
    35    24    90    1
    36    25    91    1
    37    25    92    1
    38    25    93    1
    39    26    94    1
    40    26    95    1
    41    26    96    1
    42    27    28   ar
    43    28    29   ar
    44    29    30   ar
    45    29    31    1
    46    30    33    1
    47    31    32    1
    48    32    33    1
    49    32    35    1
    50    34    97    1
    51    34    98    1
    52    34    99    1
    53    35    61    1
    54    36    37    1
    55    36    60    1
    56    37    38    1
    57    38    39    1
    58    39    40    1
    59    40    41    1
    60    41    42    1
    61    45   100    1
    62    47   101    1
    63    47   102    1
    64    47   103    1
    65    48   104    1
    66    49   105    1
    67    49   106    1
    68    49   107    1
    69    50   108    1
    70    51    59    1
    71    52   109    1
    72    52   110    1
    73    52   111    1
    74    53    54    1
    75    54    55    2
    76    54    56    1
    77    56   112    1
    78    56   113    1
    79    56   114    1
    80    57   115    1
    81    57   116    1
    82    57   117    1
    83    58   118    1
    84    58   119    1
    85    58   120    1
    86    59   121    1
    87    59   122    1
    88    59   123    1
    89    60    61    2
    90     1    47    1
    91     1    62    1
    92     2    63    1
    93     3    64    1
    94     4    65    1
    95     5     6    1
    96     7     8    2
    97     9    78    1
    98    15    79    1
    99    18    80    1
   100    18    81    1
   101    19    82    1
   102    19    83    1
   103    20    23    1
   104    21    84    1
   105    21    85    1
   106    22    86    1
   107    22    87    1
   108    27    45    1
   109    28    34    1
   110    32    58    1
   111    33    46    2
   112    36    51    1
   113    36    66    1
   114    37    52    1
   115    37    67    1
   116    38    53    1
   117    38    68    1
   118    42    48    1
   119    42    72    1
   120    43    44    2
   121    60    73    1
   122    61    74    1
   123    39    69    1
   124    39    57    1
   125    40    70    1
   126    40    50    1
   127    41    71    1
   128    41    49    1
