@<TRIPOS>MOLECULE
*****
 123 128 0 0 0
SMALL
GASTEIGER

@<TRIPOS>ATOM
     1 C         -0.994903   -4.195923   2.41366 C.3        1 UNL1     0.0009
     2 C         -0.126341   -5.213819   3.696829 C.2        1 UNL1     -0.0787
     3 C         0.51879   -6.446594   4.096979 C.2        1 UNL1     -0.0649
     4 C         1.318768   -6.777762   5.551875 C.2        1 UNL1     -0.0542
     5 C         2.257284   -7.622185   6.194693 C.2        1 UNL1     0.0115
     6 C         3.080135   -8.931124   6.043307 C.3        1 UNL1     -0.0348
     7 C         2.928968   -7.133337   7.568323 C.2        1 UNL1     0.2441
     8 O         2.578896   -7.547963   8.664708 O.2        1 UNL1     -0.2702
     9 N         4.116745   -6.397468   7.413946 N.am        1 UNL1     -0.2772
     10 C         3.836242   -5.058682   7.26464 C.2        1 UNL1     0.1049
     11 C         3.510938   -4.664443   6.046865 C.2        1 UNL1     0.0801
     12 C         2.515241   -3.185138   8.265701 C.ar        1 UNL1     0.0753
     13 C         2.026439   -2.928458   6.945172 C.ar        1 UNL1     0.0305
     14 C         2.610742   -3.577117   5.773471 C.2        1 UNL1     0.0924
     15 N         3.608355   -5.31346   4.873914 N.pl3        1 UNL1     -0.3170
     16 C         3.282752   -4.381135   3.827488 C.3        1 UNL1     0.1275
     17 N         2.354706   -3.387264   4.482221 N.2        1 UNL1     -0.2557
     18 C         4.557977   -3.613193   3.493173 C.3        1 UNL1     0.0016
     19 C         5.645369   -4.611358   3.128708 C.3        1 UNL1     0.0026
     20 N         5.194439   -5.399276   1.989903 N.3        1 UNL1     -0.3018
     21 C         3.940032   -6.126529   2.194686 C.3        1 UNL1     0.0026
     22 C         2.860824   -5.104155   2.555181 C.3        1 UNL1     0.0016
     23 C         6.260552   -6.166847   1.377628 C.3        1 UNL1     0.0012
     24 C         7.62957   -5.565608   1.732674 C.3        1 UNL1     -0.0339
     25 C         7.860674   -5.552009   3.252695 C.3        1 UNL1     -0.0615
     26 C         8.732194   -6.316196   1.006302 C.3        1 UNL1     -0.0615
     27 C         2.035934   -2.474429   9.363551 C.ar        1 UNL1     0.1347
     28 C         1.100703   -1.460141   9.260524 C.ar        1 UNL1     0.0342
     29 C         0.597983   -1.25836   7.957558 C.ar        1 UNL1     0.1435
     30 C         1.042326   -1.987351   6.853769 C.ar        1 UNL1     0.0774
     31 O         -0.236914   -0.234584   7.675003 O.3        1 UNL1     -0.4436
     32 C         -0.141904   -0.071322   6.251911 C.3        1 UNL1     0.3143
     33 C         0.332611   -1.412503   5.730105 C.2        1 UNL1     0.2504
     34 C         0.727591   -0.491106   10.347657 C.3        1 UNL1     -0.0327
     35 O         -1.472089   0.122498   5.755631 O.2        1 UNL1     -0.4528
     36 C         -1.124035   2.307647   2.671466 C.3        1 UNL1     0.0854
     37 C         -0.280931   2.056436   1.362424 C.3        1 UNL1     0.0236
     38 C         -1.117742   2.124565   -0.003904 C.3        1 UNL1     0.1131
     39 C         -2.45044   1.285202   -0.151061 C.3        1 UNL1     0.0200
     40 C         -2.518126   -0.293345   0.383773 C.3        1 UNL1     0.0661
     41 C         -1.396865   -1.513892   0.022319 C.3        1 UNL1     0.0091
     42 C         -0.837646   -2.949139   1.018683 C.3        1 UNL1     0.0661
     43 C         3.614156   -4.171094   8.415821 C.2        1 UNL1     0.2131
     44 O         4.367659   -4.198724   9.371963 O.2        1 UNL1     -0.2851
     45 O         2.530909   -2.81732   10.62008 O.3        1 UNL1     -0.5056
     46 O         0.147415   -1.905187   4.639775 O.2        1 UNL1     -0.2836
     47 C         -2.455704   -4.688989   2.2322 C.3        1 UNL1     -0.0566
     48 O         -0.988487   -3.922545   -0.08985 O.3        1 UNL1     -0.3909
     49 C         -0.158722   -0.879114   -0.5706 C.3        1 UNL1     -0.0577
     50 O         -2.862704   -0.344032   1.753598 O.3        1 UNL1     -0.3910
     51 O         -2.521012   2.385902   2.49895 O.3        1 UNL1     -0.3753
     52 C         0.850519   1.001998   1.592493 C.3        1 UNL1     -0.0564
     53 O         -0.258577   2.234298   -1.229514 O.3        1 UNL1     -0.4608
     54 C         0.80751   1.426694   -1.528116 C.2        1 UNL1     0.3042
     55 O         1.989341   1.613437   -1.241336 O.2        1 UNL1     -0.2512
     56 C         0.422101   0.159579   -2.237053 C.3        1 UNL1     0.0332
     57 C         -3.671409   2.250175   0.218041 C.3        1 UNL1     -0.0567
     58 C         0.965082   0.979979   6.005177 C.3        1 UNL1     0.0210
     59 C         -3.046064   3.711862   2.454038 C.3        1 UNL1     0.0372
     60 C         -0.881234   1.335568   3.772043 C.2        1 UNL1     -0.0208
     61 C         -1.741005   0.698996   4.568482 C.2        1 UNL1     0.0882
     62 H         -1.031886   -3.363464   3.126651 H        1 UNL1     0.0365
     63 H         -0.180716   -4.544998   4.558334 H        1 UNL1     0.0576
     64 H         0.690408   -7.259285   3.387622 H        1 UNL1     0.0615
     65 H         1.019546   -5.955053   6.206931 H        1 UNL1     0.0622
     66 H         -0.771466   3.279509   3.044595 H        1 UNL1     0.0645
     67 H         0.35408   2.955234   1.275924 H        1 UNL1     0.0362
     68 H         -1.437967   3.177137   0.028807 H        1 UNL1     0.0741
     69 H         -2.687326   1.189733   -1.202336 H        1 UNL1     0.0359
     70 H         -3.429552   -0.634415   -0.143517 H        1 UNL1     0.0600
     71 H         -1.870004   -1.950203   -0.879196 H        1 UNL1     0.0348
     72 H         -1.792916   -2.628163   1.458852 H        1 UNL1     0.0602
     73 H         0.16168   1.276359   3.961972 H        1 UNL1     0.0628
     74 H         -2.818979   0.661894   4.407758 H        1 UNL1     0.1022
     75 H         4.147854   -8.698563   5.81325 H        1 UNL1     0.0279
     76 H         3.162344   -9.55761   6.928646 H        1 UNL1     0.0279
     77 H         2.790013   -9.515841   5.158075 H        1 UNL1     0.0279
     78 H         4.602415   -6.704263   6.57366 H        1 UNL1     0.1553
     79 H         4.197734   -6.112115   4.726549 H        1 UNL1     0.1484
     80 H         4.353428   -2.923653   2.665248 H        1 UNL1     0.0317
     81 H         4.878256   -2.998466   4.34122 H        1 UNL1     0.0317
     82 H         5.905903   -5.258262   3.979325 H        1 UNL1     0.0428
     83 H         6.546138   -4.042686   2.895729 H        1 UNL1     0.0428
     84 H         3.582627   -6.645277   1.299714 H        1 UNL1     0.0428
     85 H         4.047984   -6.925666   2.941039 H        1 UNL1     0.0428
     86 H         1.936214   -5.650924   2.566457 H        1 UNL1     0.0317
     87 H         2.726063   -4.394668   1.729613 H        1 UNL1     0.0317
     88 H         6.21512   -7.190096   1.772839 H        1 UNL1     0.0429
     89 H         6.128398   -6.235924   0.290183 H        1 UNL1     0.0429
     90 H         7.675662   -4.534298   1.363232 H        1 UNL1     0.0308
     91 H         6.922025   -5.685009   3.798911 H        1 UNL1     0.0233
     92 H         8.55988   -6.339256   3.544178 H        1 UNL1     0.0233
     93 H         8.299918   -4.608962   3.599916 H        1 UNL1     0.0233
     94 H         8.938089   -7.266352   1.510928 H        1 UNL1     0.0233
     95 H         8.420392   -6.539096   -0.017933 H        1 UNL1     0.0233
     96 H         9.657429   -5.73403   0.974839 H        1 UNL1     0.0233
     97 H         0.871301   -0.914065   11.337446 H        1 UNL1     0.0280
     98 H         1.339868   0.419667   10.318236 H        1 UNL1     0.0280
     99 H         -0.332955   -0.209393   10.2429 H        1 UNL1     0.0280
     100 H         2.534778   -3.740895   10.800679 H        1 UNL1     0.2922
     101 H         -3.13911   -4.00875   2.740027 H        1 UNL1     0.0236
     102 H         -2.600994   -5.722806   2.543803 H        1 UNL1     0.0236
     103 H         -2.77212   -4.666728   1.17599 H        1 UNL1     0.0236
     104 H         -1.853159   -4.364158   0.021015 H        1 UNL1     0.2098
     105 H         0.737836   -1.489573   -0.497553 H        1 UNL1     0.0234
     106 H         -0.280414   -0.506809   -1.587707 H        1 UNL1     0.0234
     107 H         0.0   0.0   0.0 H        1 UNL1     0.0234
     108 H         -3.313427   -1.196544   1.908002 H        1 UNL1     0.2098
     109 H         0.462752   0.058027   2.000251 H        1 UNL1     0.0234
     110 H         1.438267   0.797752   0.691061 H        1 UNL1     0.0234
     111 H         1.592947   1.357124   2.319564 H        1 UNL1     0.0234
     112 H         -0.103995   0.398311   -3.166341 H        1 UNL1     0.0342
     113 H         1.282063   -0.480529   -2.428288 H        1 UNL1     0.0342
     114 H         -0.270631   -0.397668   -1.591481 H        1 UNL1     0.0342
     115 H         -3.945897   2.173901   1.279185 H        1 UNL1     0.0234
     116 H         -3.485344   3.304086   0.001938 H        1 UNL1     0.0234
     117 H         -4.620072   1.965089   -0.268484 H        1 UNL1     0.0234
     118 H         0.639897   1.997644   6.283777 H        1 UNL1     0.0309
     119 H         1.900791   0.748417   6.523858 H        1 UNL1     0.0309
     120 H         1.222453   1.078473   4.94491 H        1 UNL1     0.0309
     121 H         -3.847035   3.724448   1.715361 H        1 UNL1     0.0524
     122 H         -3.47953   4.023102   3.419064 H        1 UNL1     0.0524
     123 H         -2.267004   4.415317   2.174198 H        1 UNL1     0.0524
@<TRIPOS>BOND
     1     1     2    1
     2     1    42    1
     3     2     3    2
     4     3     4    1
     5     4     5    2
     6     5     7    1
     7     6    75    1
     8     6    76    1
     9     6    77    1
    10     7     9   am
    11     9    10    1
    12    10    11    2
    13    10    43    1
    14    11    14    1
    15    11    15    1
    16    12    13   ar
    17    12    27   ar
    18    12    43    1
    19    13    14    1
    20    13    30   ar
    21    14    17    2
    22    15    16    1
    23    16    17    1
    24    16    18    1
    25    16    22    1
    26    18    19    1
    27    19    20    1
    28    20    21    1
    29    21    22    1
    30    23    24    1
    31    23    88    1
    32    23    89    1
    33    24    25    1
    34    24    26    1
    35    24    90    1
    36    25    91    1
    37    25    92    1
    38    25    93    1
    39    26    94    1
    40    26    95    1
    41    26    96    1
    42    27    28   ar
    43    28    29   ar
    44    29    30   ar
    45    29    31    1
    46    30    33    1
    47    31    32    1
    48    32    33    1
    49    32    35    1
    50    34    97    1
    51    34    98    1
    52    34    99    1
    53    35    61    1
    54    36    37    1
    55    36    60    1
    56    37    38    1
    57    38    39    1
    58    39    40    1
    59    40    41    1
    60    41    42    1
    61    45   100    1
    62    47   101    1
    63    47   102    1
    64    47   103    1
    65    48   104    1
    66    49   105    1
    67    49   106    1
    68    49   107    1
    69    50   108    1
    70    51    59    1
    71    52   109    1
    72    52   110    1
    73    52   111    1
    74    53    54    1
    75    54    55    2
    76    54    56    1
    77    56   112    1
    78    56   113    1
    79    56   114    1
    80    57   115    1
    81    57   116    1
    82    57   117    1
    83    58   118    1
    84    58   119    1
    85    58   120    1
    86    59   121    1
    87    59   122    1
    88    59   123    1
    89    60    61    2
    90     1    47    1
    91     1    62    1
    92     2    63    1
    93     3    64    1
    94     4    65    1
    95     5     6    1
    96     7     8    2
    97     9    78    1
    98    15    79    1
    99    18    80    1
   100    18    81    1
   101    19    82    1
   102    19    83    1
   103    20    23    1
   104    21    84    1
   105    21    85    1
   106    22    86    1
   107    22    87    1
   108    27    45    1
   109    28    34    1
   110    32    58    1
   111    33    46    2
   112    36    51    1
   113    36    66    1
   114    37    52    1
   115    37    67    1
   116    38    53    1
   117    38    68    1
   118    42    48    1
   119    42    72    1
   120    43    44    2
   121    60    73    1
   122    61    74    1
   123    39    69    1
   124    39    57    1
   125    40    70    1
   126    40    50    1
   127    41    71    1
   128    41    49    1
