@<TRIPOS>MOLECULE
*****
 123 128 0 0 0
SMALL
GASTEIGER

@<TRIPOS>ATOM
     1 C         3.594905   2.004753   -1.014213 C.3        1 UNL1     0.0009
     2 C         3.7821   3.725933   -1.677186 C.2        1 UNL1     -0.0787
     3 C         4.049376   4.624985   -2.780053 C.2        1 UNL1     -0.0649
     4 C         3.953111   6.315239   -2.791502 C.2        1 UNL1     -0.0542
     5 C         3.831463   7.465717   -3.609232 C.2        1 UNL1     0.0115
     6 C         3.864132   7.973231   -5.077116 C.3        1 UNL1     -0.0348
     7 C         3.363383   8.848067   -2.940653 C.2        1 UNL1     0.2441
     8 O         4.140556   9.753429   -2.670748 O.2        1 UNL1     -0.2702
     9 N         1.972882   9.054077   -2.925938 N.am        1 UNL1     -0.2772
     10 C         1.418302   8.506592   -1.791908 C.2        1 UNL1     0.1049
     11 C         1.160092   7.212171   -1.836883 C.2        1 UNL1     0.0801
     12 C         1.677993   8.407596   0.694072 C.ar        1 UNL1     0.0753
     13 C         1.600833   6.984053   0.566874 C.ar        1 UNL1     0.0305
     14 C         1.207424   6.34823   -0.688518 C.2        1 UNL1     0.0924
     15 N         1.154038   6.368383   -2.883072 N.pl3        1 UNL1     -0.3170
     16 C         0.640224   5.10473   -2.425435 C.3        1 UNL1     0.1275
     17 N         0.98921   5.064151   -0.957687 N.2        1 UNL1     -0.2557
     18 C         -0.88178   5.182888   -2.496829 C.3        1 UNL1     0.0016
     19 C         -1.283969   5.546865   -3.917165 C.3        1 UNL1     0.0026
     20 N         -0.768372   4.530808   -4.824258 N.3        1 UNL1     -0.3018
     21 C         0.682752   4.338797   -4.782553 C.3        1 UNL1     0.0026
     22 C         1.064052   3.969441   -3.347951 C.3        1 UNL1     0.0016
     23 C         -1.342096   4.617085   -6.15243 C.3        1 UNL1     0.0012
     24 C         -2.571759   5.538863   -6.149141 C.3        1 UNL1     -0.0339
     25 C         -2.356648   6.76016   -5.240176 C.3        1 UNL1     -0.0615
     26 C         -2.916157   5.952749   -7.569306 C.3        1 UNL1     -0.0615
     27 C         1.935372   9.009465   1.923555 C.ar        1 UNL1     0.1347
     28 C         2.092826   8.296348   3.098597 C.ar        1 UNL1     0.0342
     29 C         2.061446   6.894489   2.940576 C.ar        1 UNL1     0.1435
     30 C         1.840554   6.276608   1.709052 C.ar        1 UNL1     0.0774
     31 O         2.089746   6.064374   4.005993 O.3        1 UNL1     -0.4436
     32 C         1.574539   4.819715   3.509748 C.3        1 UNL1     0.3143
     33 C         1.811366   4.86128   2.01362 C.2        1 UNL1     0.2504
     34 C         2.120053   8.876596   4.485201 C.3        1 UNL1     -0.0327
     35 O         2.404017   3.7758   4.034591 O.2        1 UNL1     -0.4528
     36 C         0.160484   0.732167   4.367686 C.3        1 UNL1     0.0854
     37 C         -0.692613   -0.002416   3.263089 C.3        1 UNL1     0.0236
     38 C         -0.399681   -1.572205   3.11579 C.3        1 UNL1     0.1131
     39 C         1.08945   -2.081438   2.956284 C.3        1 UNL1     0.0200
     40 C         2.148459   -1.290408   1.938832 C.3        1 UNL1     0.0661
     41 C         1.843169   -0.86002   0.326636 C.3        1 UNL1     0.0091
     42 C         2.437211   0.570659   -0.656052 C.3        1 UNL1     0.0661
     43 C         1.38615   9.22532   -0.509429 C.2        1 UNL1     0.2131
     44 O         1.036437   10.390761   -0.462686 O.2        1 UNL1     -0.2851
     45 O         2.03964   10.398611   1.952525 O.3        1 UNL1     -0.5056
     46 O         1.963942   3.935161   1.248846 O.2        1 UNL1     -0.2836
     47 C         4.985849   1.334085   -0.854647 C.3        1 UNL1     -0.0566
     48 O         2.824113   -0.250099   -1.828988 O.3        1 UNL1     -0.3909
     49 C         0.360938   -0.994988   0.057811 C.3        1 UNL1     -0.0577
     50 O         2.786879   -0.223564   2.611131 O.3        1 UNL1     -0.3910
     51 O         1.186542   -0.03037   4.961971 O.3        1 UNL1     -0.3753
     52 C         -0.952815   0.914498   2.023527 C.3        1 UNL1     -0.0564
     53 O         -1.444908   -2.306885   2.328344 O.3        1 UNL1     -0.4608
     54 C         -2.340743   -1.731735   1.465435 C.2        1 UNL1     0.3042
     55 O         -2.675933   -2.140957   0.354569 O.2        1 UNL1     -0.2512
     56 C         -2.99585   -0.496171   2.014005 C.3        1 UNL1     0.0332
     57 C         1.617452   -2.490752   4.409504 C.3        1 UNL1     -0.0567
     58 C         0.051041   4.840307   3.774436 C.3        1 UNL1     0.0210
     59 C         0.938988   -0.419241   6.31229 C.3        1 UNL1     0.0372
     60 C         0.77549   2.016971   3.936167 C.2        1 UNL1     -0.0208
     61 C         2.007548   2.491756   4.1242 C.2        1 UNL1     0.0882
     62 H         3.33844   2.429876   -0.036354 H        1 UNL1     0.0365
     63 H         3.666511   4.310319   -0.761979 H        1 UNL1     0.0576
     64 H         4.188646   4.255888   -3.79862 H        1 UNL1     0.0615
     65 H         3.896517   6.580225   -1.732228 H        1 UNL1     0.0622
     66 H         -0.566561   0.993679   5.149392 H        1 UNL1     0.0645
     67 H         -1.716766   -0.007966   3.674963 H        1 UNL1     0.0362
     68 H         -0.719534   -1.913304   4.112217 H        1 UNL1     0.0741
     69 H         1.072842   -3.083445   2.548714 H        1 UNL1     0.0359
     70 H         2.933199   -2.064787   1.840957 H        1 UNL1     0.0600
     71 H         2.240016   -1.755353   -0.190904 H        1 UNL1     0.0348
     72 H         3.127733   0.479623   0.194952 H        1 UNL1     0.0602
     73 H         0.024924   2.640067   3.51706 H        1 UNL1     0.0628
     74 H         2.8465   1.900768   4.493159 H        1 UNL1     0.1022
     75 H         3.969046   7.116633   -5.785824 H        1 UNL1     0.0279
     76 H         2.965946   8.468318   -5.439358 H        1 UNL1     0.0279
     77 H         4.768661   8.555725   -5.305656 H        1 UNL1     0.0279
     78 H         1.550032   8.591253   -3.727854 H        1 UNL1     0.1553
     79 H         1.090992   6.666897   -3.839026 H        1 UNL1     0.1484
     80 H         -1.303903   4.216331   -2.196254 H        1 UNL1     0.0317
     81 H         -1.268874   5.926718   -1.792182 H        1 UNL1     0.0317
     82 H         -0.924435   6.547665   -4.198318 H        1 UNL1     0.0428
     83 H         -2.372794   5.59903   -3.945238 H        1 UNL1     0.0428
     84 H         1.034742   3.5167   -5.413482 H        1 UNL1     0.0428
     85 H         1.222405   5.217048   -5.163037 H        1 UNL1     0.0428
     86 H         2.105321   3.70773   -3.383355 H        1 UNL1     0.0317
     87 H         0.575927   3.030186   -3.060495 H        1 UNL1     0.0317
     88 H         -0.586244   5.045122   -6.823822 H        1 UNL1     0.0429
     89 H         -1.593576   3.622816   -6.543531 H        1 UNL1     0.0429
     90 H         -3.43966   4.9786   -5.781626 H        1 UNL1     0.0308
     91 H         -3.258901   7.376298   -5.181732 H        1 UNL1     0.0233
     92 H         -2.070523   6.4468   -4.233425 H        1 UNL1     0.0233
     93 H         -1.549832   7.410743   -5.598818 H        1 UNL1     0.0233
     94 H         -2.315452   6.819192   -7.866403 H        1 UNL1     0.0233
     95 H         -2.693964   5.135342   -8.260999 H        1 UNL1     0.0233
     96 H         -3.973295   6.216742   -7.66277 H        1 UNL1     0.0233
     97 H         2.120966   8.105363   5.249681 H        1 UNL1     0.0280
     98 H         3.0206   9.478405   4.664358 H        1 UNL1     0.0280
     99 H         1.232356   9.512306   4.636728 H        1 UNL1     0.0280
     100 H         1.667961   10.803284   2.716539 H        1 UNL1     0.2922
     101 H         4.878273   0.384603   -0.330656 H        1 UNL1     0.0236
     102 H         5.722191   1.981916   -0.380201 H        1 UNL1     0.0236
     103 H         5.4313   1.067821   -1.82772 H        1 UNL1     0.0236
     104 H         2.519823   -1.163774   -1.662928 H        1 UNL1     0.2098
     105 H         0.117642   -1.492067   -0.877887 H        1 UNL1     0.0234
     106 H         -0.212662   -1.429244   0.87655 H        1 UNL1     0.0234
     107 H         -0.0   0.0   0.0 H        1 UNL1     0.0234
     108 H         3.416664   0.179711   1.983032 H        1 UNL1     0.2098
     109 H         -1.954123   0.762835   1.596803 H        1 UNL1     0.0234
     110 H         -0.802378   1.978431   2.23603 H        1 UNL1     0.0234
     111 H         -0.24741   0.70343   1.208788 H        1 UNL1     0.0234
     112 H         -3.704554   -0.094973   1.283168 H        1 UNL1     0.0342
     113 H         -3.483246   -0.681142   2.970078 H        1 UNL1     0.0342
     114 H         -2.216856   0.260982   2.178479 H        1 UNL1     0.0342
     115 H         2.306717   -3.345368   4.367852 H        1 UNL1     0.0234
     116 H         2.126539   -1.683891   4.940404 H        1 UNL1     0.0234
     117 H         0.826563   -2.886824   5.069476 H        1 UNL1     0.0234
     118 H         -0.449707   3.936724   3.384828 H        1 UNL1     0.0309
     119 H         -0.199487   4.960231   4.833235 H        1 UNL1     0.0309
     120 H         -0.455984   5.656662   3.248512 H        1 UNL1     0.0309
     121 H         1.54385   -1.302117   6.517298 H        1 UNL1     0.0524
     122 H         1.235151   0.360803   7.033301 H        1 UNL1     0.0524
     123 H         -0.114301   -0.646015   6.451029 H        1 UNL1     0.0524
@<TRIPOS>BOND
     1     1     2    1
     2     1    42    1
     3     2     3    2
     4     3     4    1
     5     4     5    2
     6     5     7    1
     7     6    75    1
     8     6    76    1
     9     6    77    1
    10     7     9   am
    11     9    10    1
    12    10    11    2
    13    10    43    1
    14    11    14    1
    15    11    15    1
    16    12    13   ar
    17    12    27   ar
    18    12    43    1
    19    13    14    1
    20    13    30   ar
    21    14    17    2
    22    15    16    1
    23    16    17    1
    24    16    18    1
    25    16    22    1
    26    18    19    1
    27    19    20    1
    28    20    21    1
    29    21    22    1
    30    23    24    1
    31    23    88    1
    32    23    89    1
    33    24    25    1
    34    24    26    1
    35    24    90    1
    36    25    91    1
    37    25    92    1
    38    25    93    1
    39    26    94    1
    40    26    95    1
    41    26    96    1
    42    27    28   ar
    43    28    29   ar
    44    29    30   ar
    45    29    31    1
    46    30    33    1
    47    31    32    1
    48    32    33    1
    49    32    35    1
    50    34    97    1
    51    34    98    1
    52    34    99    1
    53    35    61    1
    54    36    37    1
    55    36    60    1
    56    37    38    1
    57    38    39    1
    58    39    40    1
    59    40    41    1
    60    41    42    1
    61    45   100    1
    62    47   101    1
    63    47   102    1
    64    47   103    1
    65    48   104    1
    66    49   105    1
    67    49   106    1
    68    49   107    1
    69    50   108    1
    70    51    59    1
    71    52   109    1
    72    52   110    1
    73    52   111    1
    74    53    54    1
    75    54    55    2
    76    54    56    1
    77    56   112    1
    78    56   113    1
    79    56   114    1
    80    57   115    1
    81    57   116    1
    82    57   117    1
    83    58   118    1
    84    58   119    1
    85    58   120    1
    86    59   121    1
    87    59   122    1
    88    59   123    1
    89    60    61    2
    90     1    47    1
    91     1    62    1
    92     2    63    1
    93     3    64    1
    94     4    65    1
    95     5     6    1
    96     7     8    2
    97     9    78    1
    98    15    79    1
    99    18    80    1
   100    18    81    1
   101    19    82    1
   102    19    83    1
   103    20    23    1
   104    21    84    1
   105    21    85    1
   106    22    86    1
   107    22    87    1
   108    27    45    1
   109    28    34    1
   110    32    58    1
   111    33    46    2
   112    36    51    1
   113    36    66    1
   114    37    52    1
   115    37    67    1
   116    38    53    1
   117    38    68    1
   118    42    48    1
   119    42    72    1
   120    43    44    2
   121    60    73    1
   122    61    74    1
   123    39    69    1
   124    39    57    1
   125    40    70    1
   126    40    50    1
   127    41    71    1
   128    41    49    1
