@<TRIPOS>MOLECULE
*****
 123 128 0 0 0
SMALL
GASTEIGER

@<TRIPOS>ATOM
     1 C         -4.660132   -0.017226   -2.063731 C.3        1 UNL1     0.0009
     2 C         -6.453432   0.223675   -1.659898 C.2        1 UNL1     -0.0787
     3 C         -7.708254   -0.294376   -1.156817 C.2        1 UNL1     -0.0649
     4 C         -9.152532   0.549541   -0.895619 C.2        1 UNL1     -0.0542
     5 C         -10.392984   0.54405   -0.211275 C.2        1 UNL1     0.0115
     6 C         -11.349107   -0.326168   0.650045 C.3        1 UNL1     -0.0348
     7 C         -11.206021   1.920557   -0.065716 C.2        1 UNL1     0.2441
     8 O         -12.175224   2.19742   -0.75891 O.2        1 UNL1     -0.2702
     9 N         -10.894041   2.670363   1.08172 N.am        1 UNL1     -0.2772
     10 C         -9.834614   3.512112   0.831927 C.2        1 UNL1     0.1049
     11 C         -8.63079   2.978482   0.933253 C.2        1 UNL1     0.0801
     12 C         -8.988824   5.204458   -0.804514 C.ar        1 UNL1     0.0753
     13 C         -7.763877   4.464227   -0.817565 C.ar        1 UNL1     0.0305
     14 C         -7.501121   3.402476   0.151298 C.2        1 UNL1     0.0924
     15 N         -8.250666   1.79539   1.445432 N.pl3        1 UNL1     -0.3170
     16 C         -6.812306   1.770075   1.472545 C.3        1 UNL1     0.1275
     17 N         -6.396999   2.687699   0.348619 N.2        1 UNL1     -0.2557
     18 C         -6.372264   2.454906   2.762922 C.3        1 UNL1     0.0016
     19 C         -7.034767   1.751864   3.93698 C.3        1 UNL1     0.0026
     20 N         -6.639383   0.350226   3.926522 N.3        1 UNL1     -0.3018
     21 C         -6.965487   -0.378605   2.698992 C.3        1 UNL1     0.0026
     22 C         -6.286102   0.342152   1.533299 C.3        1 UNL1     0.0016
     23 C         -6.968154   -0.337671   5.159142 C.3        1 UNL1     0.0012
     24 C         -6.598081   -1.825988   5.060578 C.3        1 UNL1     -0.0339
     25 C         -6.549295   -2.486434   6.448198 C.3        1 UNL1     -0.0615
     26 C         -7.564793   -2.542747   4.134023 C.3        1 UNL1     -0.0615
     27 C         -9.183228   6.293236   -1.651205 C.ar        1 UNL1     0.1347
     28 C         -8.214504   6.758586   -2.522453 C.ar        1 UNL1     0.0342
     29 C         -7.035031   5.984589   -2.553054 C.ar        1 UNL1     0.1435
     30 C         -6.840129   4.869827   -1.736636 C.ar        1 UNL1     0.0774
     31 O         -5.956573   6.371483   -3.268769 O.3        1 UNL1     -0.4436
     32 C         -4.860568   5.642485   -2.695877 C.3        1 UNL1     0.3143
     33 C         -5.491447   4.43435   -2.033596 C.2        1 UNL1     0.2504
     34 C         -8.255767   8.060519   -3.273032 C.3        1 UNL1     -0.0327
     35 O         -4.060934   5.153933   -3.779922 O.2        1 UNL1     -0.4528
     36 C         -0.507563   4.980927   -2.456398 C.3        1 UNL1     0.0854
     37 C         0.053768   4.196414   -1.208612 C.3        1 UNL1     0.0236
     38 C         1.269865   3.200805   -1.527381 C.3        1 UNL1     0.1131
     39 C         1.138281   2.152316   -2.704507 C.3        1 UNL1     0.0200
     40 C         -0.270187   1.281919   -2.907154 C.3        1 UNL1     0.0661
     41 C         -1.090142   0.422519   -1.696074 C.3        1 UNL1     0.0091
     42 C         -2.881834   0.098065   -1.472526 C.3        1 UNL1     0.0661
     43 C         -10.011481   4.829723   0.203458 C.2        1 UNL1     0.2131
     44 O         -10.889477   5.582944   0.583612 O.2        1 UNL1     -0.2851
     45 O         -10.421264   6.931074   -1.607974 O.3        1 UNL1     -0.5056
     46 O         -4.998778   3.349319   -1.819501 O.2        1 UNL1     -0.2836
     47 C         -4.507431   -0.859055   -3.359102 C.3        1 UNL1     -0.0566
     48 O         -2.702663   -1.349759   -1.206406 O.3        1 UNL1     -0.3909
     49 C         -0.545685   0.839476   -0.348035 C.3        1 UNL1     -0.0577
     50 O         -1.19402   2.000834   -3.699249 O.3        1 UNL1     -0.3910
     51 O         0.001644   4.588323   -3.71099 O.3        1 UNL1     -0.3753
     52 C         -1.078798   3.827565   -0.1956 C.3        1 UNL1     -0.0564
     53 O         2.006999   2.741916   -0.303297 O.3        1 UNL1     -0.4608
     54 C         2.784415   1.61659   -0.218472 C.2        1 UNL1     0.3042
     55 O         2.525569   0.495424   -0.65416 O.2        1 UNL1     -0.2512
     56 C         4.113104   1.851912   0.441774 C.3        1 UNL1     0.0332
     57 C         1.807543   2.800339   -4.004633 C.3        1 UNL1     -0.0567
     58 C         -4.254842   6.551834   -1.601478 C.3        1 UNL1     0.0210
     59 C         -0.137563   5.561148   -4.745445 C.3        1 UNL1     0.0372
     60 C         -1.990847   4.989291   -2.578715 C.2        1 UNL1     -0.0208
     61 C         -2.77174   4.789586   -3.641291 C.2        1 UNL1     0.0882
     62 H         -4.606648   1.035473   -2.366511 H        1 UNL1     0.0365
     63 H         -6.609568   1.240792   -2.025361 H        1 UNL1     0.0576
     64 H         -7.78351   -1.296767   -0.729434 H        1 UNL1     0.0615
     65 H         -9.00149   1.494528   -1.424456 H        1 UNL1     0.0622
     66 H         -0.213812   6.025391   -2.28075 H        1 UNL1     0.0645
     67 H         0.557891   4.973405   -0.608026 H        1 UNL1     0.0362
     68 H         2.020096   3.930231   -1.868867 H        1 UNL1     0.0741
     69 H         1.87852   1.376057   -2.563518 H        1 UNL1     0.0359
     70 H         0.097042   0.47711   -3.572349 H        1 UNL1     0.0600
     71 H         -0.625235   -0.57537   -1.818692 H        1 UNL1     0.0348
     72 H         -2.753002   0.37303   -2.529462 H        1 UNL1     0.0602
     73 H         -2.414937   5.319381   -1.663053 H        1 UNL1     0.0628
     74 H         -2.423735   4.396641   -4.59718 H        1 UNL1     0.1022
     75 H         -10.990313   -1.382997   0.687629 H        1 UNL1     0.0279
     76 H         -11.424347   -0.066711   1.703653 H        1 UNL1     0.0279
     77 H         -12.34085   -0.450113   0.190932 H        1 UNL1     0.0279
     78 H         -10.61674   2.044038   1.834647 H        1 UNL1     0.1553
     79 H         -8.81592   1.252192   2.071816 H        1 UNL1     0.1484
     80 H         -5.278808   2.411951   2.83555 H        1 UNL1     0.0317
     81 H         -6.644459   3.515803   2.75535 H        1 UNL1     0.0317
     82 H         -8.129539   1.854538   3.907929 H        1 UNL1     0.0428
     83 H         -6.708829   2.257195   4.846626 H        1 UNL1     0.0428
     84 H         -6.587536   -1.405626   2.685106 H        1 UNL1     0.0428
     85 H         -8.050394   -0.491756   2.566743 H        1 UNL1     0.0428
     86 H         -6.434369   -0.288943   0.676722 H        1 UNL1     0.0317
     87 H         -5.197846   0.332832   1.670079 H        1 UNL1     0.0317
     88 H         -6.382334   0.11519   5.969713 H        1 UNL1     0.0429
     89 H         -8.027246   -0.209226   5.417214 H        1 UNL1     0.0429
     90 H         -5.610342   -1.920373   4.594019 H        1 UNL1     0.0308
     91 H         -6.889196   -1.798598   7.22823 H        1 UNL1     0.0233
     92 H         -7.167876   -3.38672   6.46948 H        1 UNL1     0.0233
     93 H         -5.536592   -2.804658   6.723881 H        1 UNL1     0.0233
     94 H         -8.258945   -1.824896   3.683824 H        1 UNL1     0.0233
     95 H         -7.014266   -3.031846   3.325528 H        1 UNL1     0.0233
     96 H         -8.147333   -3.296656   4.6709 H        1 UNL1     0.0233
     97 H         -8.962   8.033321   -4.097487 H        1 UNL1     0.0280
     98 H         -8.570926   8.896336   -2.6348 H        1 UNL1     0.0280
     99 H         -7.256317   8.282935   -3.681353 H        1 UNL1     0.0280
     100 H         -10.587528   7.409895   -0.815062 H        1 UNL1     0.2922
     101 H         -4.730713   -1.904375   -3.146716 H        1 UNL1     0.0236
     102 H         -3.536157   -0.737318   -3.837423 H        1 UNL1     0.0236
     103 H         -5.239269   -0.567793   -4.130965 H        1 UNL1     0.0236
     104 H         -2.734507   -1.813779   -2.065849 H        1 UNL1     0.2098
     105 H         0.133633   1.687569   -0.380844 H        1 UNL1     0.0234
     106 H         -1.302393   0.99113   0.421589 H        1 UNL1     0.0234
     107 H         0.0   0.0   0.0 H        1 UNL1     0.0234
     108 H         -0.729169   2.269824   -4.514924 H        1 UNL1     0.2098
     109 H         -1.85611   3.198612   -0.65158 H        1 UNL1     0.0234
     110 H         -0.703106   3.344778   0.712979 H        1 UNL1     0.0234
     111 H         -1.598597   4.72171   0.173535 H        1 UNL1     0.0234
     112 H         4.835678   2.215454   -0.295159 H        1 UNL1     0.0342
     113 H         4.036006   2.537331   1.284448 H        1 UNL1     0.0342
     114 H         4.479793   0.890553   0.827123 H        1 UNL1     0.0342
     115 H         1.51722   2.268882   -4.921396 H        1 UNL1     0.0234
     116 H         1.568717   3.856085   -4.147498 H        1 UNL1     0.0234
     117 H         2.90546   2.69248   -4.034409 H        1 UNL1     0.0234
     118 H         -3.919059   5.974869   -0.722065 H        1 UNL1     0.0309
     119 H         -3.425182   7.166718   -1.964499 H        1 UNL1     0.0309
     120 H         -4.987814   7.249138   -1.181207 H        1 UNL1     0.0309
     121 H         -0.98832   5.269007   -5.360443 H        1 UNL1     0.0524
     122 H         -0.345933   6.568212   -4.347398 H        1 UNL1     0.0524
     123 H         0.765099   5.600229   -5.348577 H        1 UNL1     0.0524
@<TRIPOS>BOND
     1     1     2    1
     2     1    42    1
     3     2     3    2
     4     3     4    1
     5     4     5    2
     6     5     7    1
     7     6    75    1
     8     6    76    1
     9     6    77    1
    10     7     9   am
    11     9    10    1
    12    10    11    2
    13    10    43    1
    14    11    14    1
    15    11    15    1
    16    12    13   ar
    17    12    27   ar
    18    12    43    1
    19    13    14    1
    20    13    30   ar
    21    14    17    2
    22    15    16    1
    23    16    17    1
    24    16    18    1
    25    16    22    1
    26    18    19    1
    27    19    20    1
    28    20    21    1
    29    21    22    1
    30    23    24    1
    31    23    88    1
    32    23    89    1
    33    24    25    1
    34    24    26    1
    35    24    90    1
    36    25    91    1
    37    25    92    1
    38    25    93    1
    39    26    94    1
    40    26    95    1
    41    26    96    1
    42    27    28   ar
    43    28    29   ar
    44    29    30   ar
    45    29    31    1
    46    30    33    1
    47    31    32    1
    48    32    33    1
    49    32    35    1
    50    34    97    1
    51    34    98    1
    52    34    99    1
    53    35    61    1
    54    36    37    1
    55    36    60    1
    56    37    38    1
    57    38    39    1
    58    39    40    1
    59    40    41    1
    60    41    42    1
    61    45   100    1
    62    47   101    1
    63    47   102    1
    64    47   103    1
    65    48   104    1
    66    49   105    1
    67    49   106    1
    68    49   107    1
    69    50   108    1
    70    51    59    1
    71    52   109    1
    72    52   110    1
    73    52   111    1
    74    53    54    1
    75    54    55    2
    76    54    56    1
    77    56   112    1
    78    56   113    1
    79    56   114    1
    80    57   115    1
    81    57   116    1
    82    57   117    1
    83    58   118    1
    84    58   119    1
    85    58   120    1
    86    59   121    1
    87    59   122    1
    88    59   123    1
    89    60    61    2
    90     1    47    1
    91     1    62    1
    92     2    63    1
    93     3    64    1
    94     4    65    1
    95     5     6    1
    96     7     8    2
    97     9    78    1
    98    15    79    1
    99    18    80    1
   100    18    81    1
   101    19    82    1
   102    19    83    1
   103    20    23    1
   104    21    84    1
   105    21    85    1
   106    22    86    1
   107    22    87    1
   108    27    45    1
   109    28    34    1
   110    32    58    1
   111    33    46    2
   112    36    51    1
   113    36    66    1
   114    37    52    1
   115    37    67    1
   116    38    53    1
   117    38    68    1
   118    42    48    1
   119    42    72    1
   120    43    44    2
   121    60    73    1
   122    61    74    1
   123    39    69    1
   124    39    57    1
   125    40    70    1
   126    40    50    1
   127    41    71    1
   128    41    49    1
