@<TRIPOS>MOLECULE
*****
 123 128 0 0 0
SMALL
GASTEIGER

@<TRIPOS>ATOM
     1 C         1.382625   -3.044219   4.338243 C.3        1 UNL1     0.0009
     2 C         2.717623   -4.03763   5.155526 C.2        1 UNL1     -0.0787
     3 C         3.310582   -5.317934   5.479976 C.2        1 UNL1     -0.0649
     4 C         4.783827   -5.614739   6.259599 C.2        1 UNL1     -0.0542
     5 C         5.803367   -6.570991   6.490247 C.2        1 UNL1     0.0115
     6 C         6.18785   -8.065618   6.31252 C.3        1 UNL1     -0.0348
     7 C         7.230213   -6.070601   7.029422 C.2        1 UNL1     0.2441
     8 O         7.575704   -6.179999   8.197837 O.2        1 UNL1     -0.2702
     9 N         8.15582   -5.738163   6.024987 N.am        1 UNL1     -0.2772
     10 C         8.014426   -4.419267   5.65914 C.2        1 UNL1     0.1049
     11 C         7.064833   -4.157909   4.779261 C.2        1 UNL1     0.0801
     12 C         7.832416   -2.108481   6.599606 C.ar        1 UNL1     0.0753
     13 C         6.674933   -1.947819   5.773151 C.ar        1 UNL1     0.0305
     14 C         6.331991   -2.921503   4.739042 C.2        1 UNL1     0.0924
     15 N         6.340999   -4.994111   4.015483 N.pl3        1 UNL1     -0.3170
     16 C         5.563968   -4.195939   3.10477 C.3        1 UNL1     0.1275
     17 N         5.365701   -2.885051   3.825871 N.2        1 UNL1     -0.2557
     18 C         6.451747   -3.888024   1.902797 C.3        1 UNL1     0.0016
     19 C         6.951538   -5.199714   1.318617 C.3        1 UNL1     0.0026
     20 N         5.803012   -6.005938   0.928847 N.3        1 UNL1     -0.3018
     21 C         4.857333   -6.302941   2.006738 C.3        1 UNL1     0.0026
     22 C         4.364556   -4.971371   2.575938 C.3        1 UNL1     0.0016
     23 C         6.16361   -7.135177   0.094922 C.3        1 UNL1     0.0012
     24 C         6.603318   -6.657434   -1.29798 C.3        1 UNL1     -0.0339
     25 C         8.133501   -6.543846   -1.396436 C.3        1 UNL1     -0.0615
     26 C         6.041334   -7.57935   -2.366168 C.3        1 UNL1     -0.0615
     27 C         8.219949   -1.118286   7.4993 C.ar        1 UNL1     0.1347
     28 C         7.554822   0.087501   7.632469 C.ar        1 UNL1     0.0342
     29 C         6.390293   0.203195   6.84402 C.ar        1 UNL1     0.1435
     30 C         5.969525   -0.795344   5.964762 C.ar        1 UNL1     0.0774
     31 O         5.694799   1.359548   6.779651 O.3        1 UNL1     -0.4436
     32 C         4.918491   1.249373   5.57712 C.3        1 UNL1     0.3143
     33 C         4.800245   -0.238748   5.316879 C.2        1 UNL1     0.2504
     34 C         8.051298   1.289752   8.386261 C.3        1 UNL1     -0.0327
     35 O         3.600783   1.726711   5.875525 O.2        1 UNL1     -0.4528
     36 C         2.260448   3.177052   2.633905 C.3        1 UNL1     0.0854
     37 C         2.085632   2.482418   1.228756 C.3        1 UNL1     0.0236
     38 C         0.604647   2.556039   0.618011 C.3        1 UNL1     0.1131
     39 C         -0.631723   2.116646   1.501522 C.3        1 UNL1     0.0200
     40 C         -0.556418   0.734359   2.432141 C.3        1 UNL1     0.0661
     41 C         -0.056411   -0.796437   1.898975 C.3        1 UNL1     0.0091
     42 C         0.808872   -2.144125   2.79364 C.3        1 UNL1     0.0661
     43 C         8.657724   -3.32606   6.403062 C.2        1 UNL1     0.2131
     44 O         9.82771   -3.406251   6.730841 O.2        1 UNL1     -0.2851
     45 O         9.332196   -1.37279   8.299032 O.3        1 UNL1     -0.5056
     46 O         3.926096   -0.833413   4.726887 O.2        1 UNL1     -0.2836
     47 C         0.068962   -3.125993   5.161398 C.3        1 UNL1     -0.0566
     48 O         -0.110272   -3.205538   2.316469 O.3        1 UNL1     -0.3909
     49 C         0.627321   -0.646907   0.558211 C.3        1 UNL1     -0.0577
     50 O         0.00667   1.012707   3.698307 O.3        1 UNL1     -0.3910
     51 O         1.074191   3.618205   3.25488 O.3        1 UNL1     -0.3753
     52 C         2.976631   1.204283   1.096692 C.3        1 UNL1     -0.0564
     53 O         0.538993   2.211629   -0.841234 O.3        1 UNL1     -0.4608
     54 C         -0.589496   1.828643   -1.517816 C.2        1 UNL1     0.3042
     55 O         -0.836302   0.72023   -1.991467 O.2        1 UNL1     -0.2512
     56 C         -1.6294   2.908599   -1.612738 C.3        1 UNL1     0.0332
     57 C         -1.237141   3.435633   2.173769 C.3        1 UNL1     -0.0567
     58 C         5.764308   1.887185   4.450479 C.3        1 UNL1     0.0210
     59 C         1.24026   4.712203   4.155688 C.3        1 UNL1     0.0372
     60 C         3.000969   2.373846   3.644672 C.2        1 UNL1     -0.0208
     61 C         2.736958   2.149309   4.932549 C.2        1 UNL1     0.0882
     62 H         1.895245   -2.128652   4.657099 H        1 UNL1     0.0365
     63 H         3.286919   -3.246887   5.648574 H        1 UNL1     0.0576
     64 H         2.907782   -6.252395   5.082934 H        1 UNL1     0.0615
     65 H         5.055041   -4.643702   6.682698 H        1 UNL1     0.0622
     66 H         2.886731   4.05713   2.430735 H        1 UNL1     0.0645
     67 H         2.641839   3.136747   0.53518 H        1 UNL1     0.0362
     68 H         0.507536   3.646276   0.501924 H        1 UNL1     0.0741
     69 H         -1.472185   1.918259   0.849851 H        1 UNL1     0.0359
     70 H         -1.633716   0.582684   2.635812 H        1 UNL1     0.0600
     71 H         -1.032651   -1.224737   1.598189 H        1 UNL1     0.0348
     72 H         0.373091   -1.496764   3.568452 H        1 UNL1     0.0602
     73 H         3.923892   2.053959   3.22858 H        1 UNL1     0.0628
     74 H         1.792386   2.393056   5.419999 H        1 UNL1     0.1022
     75 H         5.36514   -8.624303   5.80453 H        1 UNL1     0.0279
     76 H         7.042387   -8.273945   5.672648 H        1 UNL1     0.0279
     77 H         6.256732   -8.603684   7.269306 H        1 UNL1     0.0279
     78 H         7.981889   -6.305755   5.198147 H        1 UNL1     0.1553
     79 H         6.61009   -5.939992   3.815899 H        1 UNL1     0.1484
     80 H         5.872319   -3.316991   1.167304 H        1 UNL1     0.0317
     81 H         7.298448   -3.256822   2.193198 H        1 UNL1     0.0317
     82 H         7.593942   -5.742568   2.027517 H        1 UNL1     0.0428
     83 H         7.58388   -4.956918   0.464074 H        1 UNL1     0.0428
     84 H         3.96504   -6.840808   1.671591 H        1 UNL1     0.0428
     85 H         5.297591   -6.963695   2.766274 H        1 UNL1     0.0428
     86 H         3.580662   -5.223711   3.265737 H        1 UNL1     0.0317
     87 H         3.843567   -4.400892   1.797336 H        1 UNL1     0.0317
     88 H         7.007076   -7.654128   0.568788 H        1 UNL1     0.0429
     89 H         5.34029   -7.857607   0.024127 H        1 UNL1     0.0429
     90 H         6.166628   -5.670935   -1.493772 H        1 UNL1     0.0308
     91 H         8.618743   -7.496933   -1.165642 H        1 UNL1     0.0233
     92 H         8.433395   -6.22159   -2.396348 H        1 UNL1     0.0233
     93 H         8.542831   -5.801696   -0.700378 H        1 UNL1     0.0233
     94 H         6.503349   -7.360715   -3.334969 H        1 UNL1     0.0233
     95 H         6.261879   -8.620571   -2.114813 H        1 UNL1     0.0233
     96 H         4.958587   -7.461874   -2.465298 H        1 UNL1     0.0233
     97 H         7.370265   2.131637   8.304685 H        1 UNL1     0.0280
     98 H         8.155449   1.090483   9.460831 H        1 UNL1     0.0280
     99 H         9.031013   1.597748   7.985772 H        1 UNL1     0.0280
     100 H         10.003386   -0.714476   8.257198 H        1 UNL1     0.2922
     101 H         -0.695989   -2.504999   4.695702 H        1 UNL1     0.0236
     102 H         0.207238   -2.883623   6.214546 H        1 UNL1     0.0236
     103 H         -0.357542   -4.142992   5.160739 H        1 UNL1     0.0236
     104 H         -0.799674   -3.327161   2.998307 H        1 UNL1     0.2098
     105 H         1.614468   -0.194011   0.60551 H        1 UNL1     0.0234
     106 H         0.657321   -1.556438   -0.041604 H        1 UNL1     0.0234
     107 H         0.0   0.0   -0.0 H        1 UNL1     0.0234
     108 H         0.932644   1.285566   3.55036 H        1 UNL1     0.2098
     109 H         2.740379   0.45164   1.861823 H        1 UNL1     0.0234
     110 H         2.926353   0.745331   0.103425 H        1 UNL1     0.0234
     111 H         4.041536   1.437902   1.228394 H        1 UNL1     0.0234
     112 H         -2.504028   2.536437   -2.154833 H        1 UNL1     0.0342
     113 H         -1.911061   3.293119   -0.633629 H        1 UNL1     0.0342
     114 H         -1.206018   3.742898   -2.188809 H        1 UNL1     0.0342
     115 H         -1.555275   4.169008   1.420019 H        1 UNL1     0.0234
     116 H         -2.08946   3.248334   2.82991 H        1 UNL1     0.0234
     117 H         -0.493307   4.021614   2.740583 H        1 UNL1     0.0234
     118 H         5.658206   2.985834   4.423701 H        1 UNL1     0.0309
     119 H         6.826758   1.631409   4.513588 H        1 UNL1     0.0309
     120 H         5.436618   1.577393   3.452103 H        1 UNL1     0.0309
     121 H         1.896891   4.380597   4.959572 H        1 UNL1     0.0524
     122 H         1.717895   5.581761   3.674262 H        1 UNL1     0.0524
     123 H         0.278475   5.016517   4.558746 H        1 UNL1     0.0524
@<TRIPOS>BOND
     1     1     2    1
     2     1    42    1
     3     2     3    2
     4     3     4    1
     5     4     5    2
     6     5     7    1
     7     6    75    1
     8     6    76    1
     9     6    77    1
    10     7     9   am
    11     9    10    1
    12    10    11    2
    13    10    43    1
    14    11    14    1
    15    11    15    1
    16    12    13   ar
    17    12    27   ar
    18    12    43    1
    19    13    14    1
    20    13    30   ar
    21    14    17    2
    22    15    16    1
    23    16    17    1
    24    16    18    1
    25    16    22    1
    26    18    19    1
    27    19    20    1
    28    20    21    1
    29    21    22    1
    30    23    24    1
    31    23    88    1
    32    23    89    1
    33    24    25    1
    34    24    26    1
    35    24    90    1
    36    25    91    1
    37    25    92    1
    38    25    93    1
    39    26    94    1
    40    26    95    1
    41    26    96    1
    42    27    28   ar
    43    28    29   ar
    44    29    30   ar
    45    29    31    1
    46    30    33    1
    47    31    32    1
    48    32    33    1
    49    32    35    1
    50    34    97    1
    51    34    98    1
    52    34    99    1
    53    35    61    1
    54    36    37    1
    55    36    60    1
    56    37    38    1
    57    38    39    1
    58    39    40    1
    59    40    41    1
    60    41    42    1
    61    45   100    1
    62    47   101    1
    63    47   102    1
    64    47   103    1
    65    48   104    1
    66    49   105    1
    67    49   106    1
    68    49   107    1
    69    50   108    1
    70    51    59    1
    71    52   109    1
    72    52   110    1
    73    52   111    1
    74    53    54    1
    75    54    55    2
    76    54    56    1
    77    56   112    1
    78    56   113    1
    79    56   114    1
    80    57   115    1
    81    57   116    1
    82    57   117    1
    83    58   118    1
    84    58   119    1
    85    58   120    1
    86    59   121    1
    87    59   122    1
    88    59   123    1
    89    60    61    2
    90     1    47    1
    91     1    62    1
    92     2    63    1
    93     3    64    1
    94     4    65    1
    95     5     6    1
    96     7     8    2
    97     9    78    1
    98    15    79    1
    99    18    80    1
   100    18    81    1
   101    19    82    1
   102    19    83    1
   103    20    23    1
   104    21    84    1
   105    21    85    1
   106    22    86    1
   107    22    87    1
   108    27    45    1
   109    28    34    1
   110    32    58    1
   111    33    46    2
   112    36    51    1
   113    36    66    1
   114    37    52    1
   115    37    67    1
   116    38    53    1
   117    38    68    1
   118    42    48    1
   119    42    72    1
   120    43    44    2
   121    60    73    1
   122    61    74    1
   123    39    69    1
   124    39    57    1
   125    40    70    1
   126    40    50    1
   127    41    71    1
   128    41    49    1
