@<TRIPOS>MOLECULE
*****
 123 128 0 0 0
SMALL
GASTEIGER

@<TRIPOS>ATOM
     1 C         4.297744   3.275163   0.597033 C.3        1 UNL1     0.0009
     2 C         5.222242   4.691588   -0.161966 C.2        1 UNL1     -0.0787
     3 C         6.383772   5.204925   -0.857222 C.2        1 UNL1     -0.0649
     4 C         6.631708   6.769518   -1.454662 C.2        1 UNL1     -0.0542
     5 C         7.377207   7.560885   -2.362984 C.2        1 UNL1     0.0115
     6 C         8.597234   7.557337   -3.324672 C.3        1 UNL1     -0.0348
     7 C         6.822192   9.012393   -2.765566 C.2        1 UNL1     0.2441
     8 O         7.268766   10.049568   -2.295072 O.2        1 UNL1     -0.2702
     9 N         5.971136   9.028062   -3.88432 N.am        1 UNL1     -0.2772
     10 C         4.667346   8.816224   -3.498861 C.2        1 UNL1     0.1049
     11 C         4.308859   7.556959   -3.325771 C.2        1 UNL1     0.0801
     12 C         2.934669   9.57477   -1.86186 C.ar        1 UNL1     0.0753
     13 C         2.729531   8.191384   -1.557277 C.ar        1 UNL1     0.0305
     14 C         3.317486   7.132563   -2.374748 C.2        1 UNL1     0.0924
     15 N         4.945966   6.42305   -3.664697 N.pl3        1 UNL1     -0.3170
     16 C         4.051967   5.32435   -3.411953 C.3        1 UNL1     0.1275
     17 N         3.155483   5.814507   -2.301194 N.2        1 UNL1     -0.2557
     18 C         3.160409   5.174932   -4.640977 C.3        1 UNL1     0.0016
     19 C         4.044918   4.995885   -5.864568 C.3        1 UNL1     0.0026
     20 N         4.87515   3.814795   -5.672814 N.3        1 UNL1     -0.3018
     21 C         5.724262   3.838694   -4.479999 C.3        1 UNL1     0.0026
     22 C         4.814849   4.014665   -3.262667 C.3        1 UNL1     0.0016
     23 C         5.532596   3.38387   -6.89048 C.3        1 UNL1     0.0012
     24 C         4.509781   2.797679   -7.876374 C.3        1 UNL1     -0.0339
     25 C         5.117049   1.650943   -8.701165 C.3        1 UNL1     -0.0615
     26 C         3.264299   2.351208   -7.130573 C.3        1 UNL1     -0.0615
     27 C         2.274524   10.575525   -1.152765 C.ar        1 UNL1     0.1347
     28 C         1.359171   10.315371   -0.148525 C.ar        1 UNL1     0.0342
     29 C         1.210034   8.948123   0.166995 C.ar        1 UNL1     0.1435
     30 C         1.891878   7.936491   -0.510434 C.ar        1 UNL1     0.0774
     31 O         0.275356   8.52561   1.046123 O.3        1 UNL1     -0.4436
     32 C         0.104755   7.130939   0.751739 C.3        1 UNL1     0.3143
     33 C         1.392126   6.708991   0.072882 C.2        1 UNL1     0.2504
     34 C         0.431369   11.317452   0.480059 C.3        1 UNL1     -0.0327
     35 O         0.045696   6.435539   2.003211 O.2        1 UNL1     -0.4528
     36 C         -2.160384   3.404813   1.406556 C.3        1 UNL1     0.0854
     37 C         -1.993682   2.243066   0.352953 C.3        1 UNL1     0.0236
     38 C         -1.976297   0.764687   0.97411 C.3        1 UNL1     0.1131
     39 C         -1.007456   0.430709   2.179131 C.3        1 UNL1     0.0200
     40 C         0.569414   0.974634   2.171163 C.3        1 UNL1     0.0661
     41 C         1.671788   0.807311   0.892733 C.3        1 UNL1     0.0091
     42 C         3.042812   1.900136   0.35289 C.3        1 UNL1     0.0661
     43 C         3.805384   9.905835   -3.01707 C.2        1 UNL1     0.2131
     44 O         3.756445   10.965536   -3.61488 O.2        1 UNL1     -0.2851
     45 O         2.564882   11.897995   -1.481709 O.3        1 UNL1     -0.5056
     46 O         1.901931   5.611327   0.039924 O.2        1 UNL1     -0.2836
     47 C         4.934903   2.882231   1.957039 C.3        1 UNL1     -0.0566
     48 O         4.027494   0.797496   0.235829 O.3        1 UNL1     -0.3909
     49 C         0.916688   0.398851   -0.352449 C.3        1 UNL1     -0.0577
     50 O         0.65307   2.276975   2.713963 O.3        1 UNL1     -0.3910
     51 O         -2.098076   3.02113   2.761671 O.3        1 UNL1     -0.3753
     52 C         -1.058167   2.659192   -0.828826 C.3        1 UNL1     -0.0564
     53 O         -2.170411   -0.318026   -0.04686 O.3        1 UNL1     -0.4608
     54 C         -1.544159   -1.536925   -0.0421 C.2        1 UNL1     0.3042
     55 O         -0.505684   -1.840767   0.543637 O.2        1 UNL1     -0.2512
     56 C         -2.283387   -2.595857   -0.80951 C.3        1 UNL1     0.0332
     57 C         -1.845558   0.594613   3.531498 C.3        1 UNL1     -0.0567
     58 C         -1.051958   7.037957   -0.270464 C.3        1 UNL1     0.0210
     59 C         -3.361113   2.940854   3.420578 C.3        1 UNL1     0.0372
     60 C         -1.218585   4.545115   1.239564 C.2        1 UNL1     -0.0208
     61 C         -0.499814   5.212138   2.143552 C.2        1 UNL1     0.0882
     62 H         3.472502   3.960687   0.824504 H        1 UNL1     0.0365
     63 H         4.561414   5.523905   0.08908 H        1 UNL1     0.0576
     64 H         7.175849   4.543095   -1.214574 H        1 UNL1     0.0615
     65 H         5.842504   7.358164   -0.979126 H        1 UNL1     0.0622
     66 H         -3.163044   3.811284   1.212906 H        1 UNL1     0.0645
     67 H         -2.951513   2.239321   -0.195779 H        1 UNL1     0.0362
     68 H         -2.991507   0.731355   1.398089 H        1 UNL1     0.0741
     69 H         -0.887722   -0.642645   2.242246 H        1 UNL1     0.0359
     70 H         1.000614   0.320792   2.953223 H        1 UNL1     0.0600
     71 H         2.154182   -0.148344   1.1773 H        1 UNL1     0.0348
     72 H         2.818768   2.185033   1.391135 H        1 UNL1     0.0602
     73 H         -1.264376   4.891986   0.237151 H        1 UNL1     0.0628
     74 H         -0.354711   4.890373   3.17537 H        1 UNL1     0.1022
     75 H         9.333624   6.774748   -3.020831 H        1 UNL1     0.0279
     76 H         8.396401   7.299821   -4.362179 H        1 UNL1     0.0279
     77 H         9.205252   8.470273   -3.243652 H        1 UNL1     0.0279
     78 H         6.228516   8.276266   -4.52043 H        1 UNL1     0.1553
     79 H         5.681673   6.379778   -4.345723 H        1 UNL1     0.1484
     80 H         2.495632   4.314478   -4.497947 H        1 UNL1     0.0317
     81 H         2.515868   6.05166   -4.765743 H        1 UNL1     0.0317
     82 H         4.661641   5.886566   -6.05497 H        1 UNL1     0.0428
     83 H         3.389058   4.893048   -6.729624 H        1 UNL1     0.0428
     84 H         6.277072   2.908402   -4.316391 H        1 UNL1     0.0428
     85 H         6.507843   4.605656   -4.551325 H        1 UNL1     0.0428
     86 H         5.451518   3.894424   -2.405823 H        1 UNL1     0.0317
     87 H         4.123228   3.166804   -3.18593 H        1 UNL1     0.0317
     88 H         6.001786   4.261418   -7.354231 H        1 UNL1     0.0429
     89 H         6.334479   2.665168   -6.677815 H        1 UNL1     0.0429
     90 H         4.180825   3.58605   -8.563741 H        1 UNL1     0.0308
     91 H         5.673128   0.955136   -8.065767 H        1 UNL1     0.0233
     92 H         4.336594   1.103663   -9.235002 H        1 UNL1     0.0233
     93 H         5.815717   2.011095   -9.466011 H        1 UNL1     0.0233
     94 H         2.717474   1.607263   -7.719949 H        1 UNL1     0.0233
     95 H         3.543772   1.888863   -6.179734 H        1 UNL1     0.0233
     96 H         2.595602   3.193132   -6.930632 H        1 UNL1     0.0233
     97 H         0.295484   12.194996   -0.144986 H        1 UNL1     0.0280
     98 H         -0.573328   10.905949   0.642866 H        1 UNL1     0.0280
     99 H         0.842603   11.643874   1.449301 H        1 UNL1     0.0280
     100 H         3.420733   12.031057   -1.849724 H        1 UNL1     0.2922
     101 H         5.082183   3.774305   2.565455 H        1 UNL1     0.0236
     102 H         5.852273   2.304415   1.849601 H        1 UNL1     0.0236
     103 H         4.267695   2.241214   2.557143 H        1 UNL1     0.0236
     104 H         3.548039   -0.042302   0.376655 H        1 UNL1     0.2098
     105 H         0.685092   1.219542   -1.02672 H        1 UNL1     0.0234
     106 H         1.361977   -0.429052   -0.90401 H        1 UNL1     0.0234
     107 H         0.0   -0.0   0.0 H        1 UNL1     0.0234
     108 H         1.532201   2.632587   2.480644 H        1 UNL1     0.2098
     109 H         -1.215888   3.702264   -1.13678 H        1 UNL1     0.0234
     110 H         0.003722   2.496891   -0.61483 H        1 UNL1     0.0234
     111 H         -1.244702   2.053126   -1.725394 H        1 UNL1     0.0234
     112 H         -3.165652   -2.915713   -0.246796 H        1 UNL1     0.0342
     113 H         -2.557523   -2.261236   -1.80887 H        1 UNL1     0.0342
     114 H         -1.62076   -3.465311   -0.919688 H        1 UNL1     0.0342
     115 H         -1.517625   -0.114833   4.303724 H        1 UNL1     0.0234
     116 H         -1.798641   1.595893   3.964265 H        1 UNL1     0.0234
     117 H         -2.908886   0.318571   3.426259 H        1 UNL1     0.0234
     118 H         -0.74888   6.512234   -1.192833 H        1 UNL1     0.0309
     119 H         -1.947867   6.558827   0.136949 H        1 UNL1     0.0309
     120 H         -1.372131   8.020711   -0.633492 H        1 UNL1     0.0309
     121 H         -4.133639   2.928655   2.652195 H        1 UNL1     0.0524
     122 H         -3.466455   2.016067   4.01194 H        1 UNL1     0.0524
     123 H         -3.49803   3.796128   4.076211 H        1 UNL1     0.0524
@<TRIPOS>BOND
     1     1     2    1
     2     1    42    1
     3     2     3    2
     4     3     4    1
     5     4     5    2
     6     5     7    1
     7     6    75    1
     8     6    76    1
     9     6    77    1
    10     7     9   am
    11     9    10    1
    12    10    11    2
    13    10    43    1
    14    11    14    1
    15    11    15    1
    16    12    13   ar
    17    12    27   ar
    18    12    43    1
    19    13    14    1
    20    13    30   ar
    21    14    17    2
    22    15    16    1
    23    16    17    1
    24    16    18    1
    25    16    22    1
    26    18    19    1
    27    19    20    1
    28    20    21    1
    29    21    22    1
    30    23    24    1
    31    23    88    1
    32    23    89    1
    33    24    25    1
    34    24    26    1
    35    24    90    1
    36    25    91    1
    37    25    92    1
    38    25    93    1
    39    26    94    1
    40    26    95    1
    41    26    96    1
    42    27    28   ar
    43    28    29   ar
    44    29    30   ar
    45    29    31    1
    46    30    33    1
    47    31    32    1
    48    32    33    1
    49    32    35    1
    50    34    97    1
    51    34    98    1
    52    34    99    1
    53    35    61    1
    54    36    37    1
    55    36    60    1
    56    37    38    1
    57    38    39    1
    58    39    40    1
    59    40    41    1
    60    41    42    1
    61    45   100    1
    62    47   101    1
    63    47   102    1
    64    47   103    1
    65    48   104    1
    66    49   105    1
    67    49   106    1
    68    49   107    1
    69    50   108    1
    70    51    59    1
    71    52   109    1
    72    52   110    1
    73    52   111    1
    74    53    54    1
    75    54    55    2
    76    54    56    1
    77    56   112    1
    78    56   113    1
    79    56   114    1
    80    57   115    1
    81    57   116    1
    82    57   117    1
    83    58   118    1
    84    58   119    1
    85    58   120    1
    86    59   121    1
    87    59   122    1
    88    59   123    1
    89    60    61    2
    90     1    47    1
    91     1    62    1
    92     2    63    1
    93     3    64    1
    94     4    65    1
    95     5     6    1
    96     7     8    2
    97     9    78    1
    98    15    79    1
    99    18    80    1
   100    18    81    1
   101    19    82    1
   102    19    83    1
   103    20    23    1
   104    21    84    1
   105    21    85    1
   106    22    86    1
   107    22    87    1
   108    27    45    1
   109    28    34    1
   110    32    58    1
   111    33    46    2
   112    36    51    1
   113    36    66    1
   114    37    52    1
   115    37    67    1
   116    38    53    1
   117    38    68    1
   118    42    48    1
   119    42    72    1
   120    43    44    2
   121    60    73    1
   122    61    74    1
   123    39    69    1
   124    39    57    1
   125    40    70    1
   126    40    50    1
   127    41    71    1
   128    41    49    1
