@<TRIPOS>MOLECULE
*****
 123 128 0 0 0
SMALL
GASTEIGER

@<TRIPOS>ATOM
     1 C         4.610453   2.391359   -0.864194 C.3        1 UNL1     0.0009
     2 C         6.008996   2.398764   -2.081182 C.2        1 UNL1     -0.0787
     3 C         7.398545   2.145802   -2.399314 C.2        1 UNL1     -0.0649
     4 C         8.156987   2.255111   -3.909008 C.2        1 UNL1     -0.0542
     5 C         9.278325   1.854692   -4.676694 C.2        1 UNL1     0.0115
     6 C         10.669057   1.166166   -4.605132 C.3        1 UNL1     -0.0348
     7 C         9.207697   1.974444   -6.275963 C.2        1 UNL1     0.2441
     8 O         9.749907   2.875939   -6.900336 O.2        1 UNL1     -0.2702
     9 N         8.704878   0.836319   -6.930176 N.am        1 UNL1     -0.2772
     10 C         7.33407   0.904863   -7.02768 C.2        1 UNL1     0.1049
     11 C         6.654675   0.513527   -5.964899 C.2        1 UNL1     0.0801
     12 C         5.467464   2.424302   -7.709165 C.ar        1 UNL1     0.0753
     13 C         4.868061   2.126876   -6.443913 C.ar        1 UNL1     0.0305
     14 C         5.379189   1.059266   -5.58717 C.2        1 UNL1     0.0924
     15 N         7.069871   -0.141912   -4.867384 N.pl3        1 UNL1     -0.3170
     16 C         5.906607   -0.47936   -4.090724 C.3        1 UNL1     0.1275
     17 N         4.895597   0.584419   -4.442798 N.2        1 UNL1     -0.2557
     18 C         5.355288   -1.788431   -4.647576 C.3        1 UNL1     0.0016
     19 C         6.458199   -2.834371   -4.61315 C.3        1 UNL1     0.0026
     20 N         6.905343   -2.997522   -3.236752 N.3        1 UNL1     -0.3018
     21 C         7.396524   -1.776981   -2.593797 C.3        1 UNL1     0.0026
     22 C         6.271193   -0.741709   -2.635459 C.3        1 UNL1     0.0016
     23 C         7.734365   -4.171374   -3.04851 C.3        1 UNL1     0.0012
     24 C         8.752002   -3.936905   -1.921037 C.3        1 UNL1     -0.0339
     25 C         10.078872   -4.661358   -2.201462 C.3        1 UNL1     -0.0615
     26 C         8.961955   -2.447494   -1.710428 C.3        1 UNL1     -0.0615
     27 C         4.903083   3.359847   -8.573078 C.ar        1 UNL1     0.1347
     28 C         3.723943   4.029835   -8.299589 C.ar        1 UNL1     0.0342
     29 C         3.177959   3.757169   -7.027301 C.ar        1 UNL1     0.1435
     30 C         3.751859   2.849383   -6.136355 C.ar        1 UNL1     0.0774
     31 O         1.974642   4.247034   -6.657073 O.3        1 UNL1     -0.4436
     32 C         1.560252   3.407022   -5.56917 C.3        1 UNL1     0.3143
     33 C         2.841356   2.821218   -5.010764 C.2        1 UNL1     0.2504
     34 C         2.930191   4.852195   -9.276207 C.3        1 UNL1     -0.0327
     35 O         1.015298   4.260686   -4.555496 O.2        1 UNL1     -0.4528
     36 C         -1.614544   2.195517   -2.759084 C.3        1 UNL1     0.0854
     37 C         -1.460956   0.809313   -2.022626 C.3        1 UNL1     0.0236
     38 C         -1.956703   0.795643   -0.497571 C.3        1 UNL1     0.1131
     39 C         -1.44155   1.905081   0.505441 C.3        1 UNL1     0.0200
     40 C         0.165816   2.350749   0.519393 C.3        1 UNL1     0.0661
     41 C         1.489688   1.292752   0.594322 C.3        1 UNL1     0.0091
     42 C         3.172593   1.4399   -0.120928 C.3        1 UNL1     0.0661
     43 C         6.660805   1.638379   -8.109818 C.2        1 UNL1     0.2131
     44 O         7.02158   1.504223   -9.265058 O.2        1 UNL1     -0.2851
     45 O         5.574124   3.624226   -9.765238 O.3        1 UNL1     -0.5056
     46 O         3.066619   2.438243   -3.884513 O.2        1 UNL1     -0.2836
     47 C         4.760909   3.567893   0.137362 C.3        1 UNL1     -0.0566
     48 O         3.863047   1.050814   1.132469 O.3        1 UNL1     -0.3909
     49 C         1.00882   -0.111847   0.305602 C.3        1 UNL1     -0.0577
     50 O         0.412464   3.366712   -0.431768 O.3        1 UNL1     -0.3910
     51 O         -1.998772   3.28391   -1.949639 O.3        1 UNL1     -0.3753
     52 C         -0.179871   0.042493   -2.487124 C.3        1 UNL1     -0.0564
     53 O         -2.130599   -0.584772   0.065047 O.3        1 UNL1     -0.4608
     54 C         -1.300276   -1.18213   0.977 C.2        1 UNL1     0.3042
     55 O         -1.608888   -1.656768   2.069389 O.2        1 UNL1     -0.2512
     56 C         0.124263   -1.29059   0.512631 C.3        1 UNL1     0.0332
     57 C         -2.538012   3.068963   0.541827 C.3        1 UNL1     -0.0567
     58 C         0.720458   2.267441   -6.19177 C.3        1 UNL1     0.0210
     59 C         -2.075667   4.537164   -2.627362 C.3        1 UNL1     0.0372
     60 C         -0.418899   2.634344   -3.529166 C.2        1 UNL1     -0.0208
     61 C         0.17783   3.825293   -3.594733 C.2        1 UNL1     0.0882
     62 H         3.941615   2.741234   -1.659778 H        1 UNL1     0.0365
     63 H         5.522802   2.852581   -2.947286 H        1 UNL1     0.0576
     64 H         8.075649   1.682348   -1.678309 H        1 UNL1     0.0615
     65 H         7.434547   2.797518   -4.524929 H        1 UNL1     0.0622
     66 H         -2.406479   2.026932   -3.502364 H        1 UNL1     0.0645
     67 H         -2.216192   0.164499   -2.504697 H        1 UNL1     0.0362
     68 H         -3.024979   1.012989   -0.64946 H        1 UNL1     0.0741
     69 H         -1.600602   1.559541   1.518216 H        1 UNL1     0.0359
     70 H         0.211439   2.869324   1.496152 H        1 UNL1     0.0600
     71 H         1.640638   1.249383   1.690812 H        1 UNL1     0.0348
     72 H         2.761179   2.459543   -0.101379 H        1 UNL1     0.0602
     73 H         -0.11943   1.854008   -4.183874 H        1 UNL1     0.0628
     74 H         -0.030337   4.657241   -2.921111 H        1 UNL1     0.1022
     75 H         10.988578   0.821773   -5.618214 H        1 UNL1     0.0279
     76 H         11.504195   1.790602   -4.295789 H        1 UNL1     0.0279
     77 H         10.64541   0.216512   -4.050788 H        1 UNL1     0.0279
     78 H         8.932372   0.003447   -6.391058 H        1 UNL1     0.1553
     79 H         7.924978   -0.664968   -4.821153 H        1 UNL1     0.1484
     80 H         4.491619   -2.097149   -4.046298 H        1 UNL1     0.0317
     81 H         4.992361   -1.655673   -5.672423 H        1 UNL1     0.0317
     82 H         7.296344   -2.564077   -5.272215 H        1 UNL1     0.0428
     83 H         6.044181   -3.759158   -5.016149 H        1 UNL1     0.0428
     84 H         7.650789   -1.909445   -1.537571 H        1 UNL1     0.0428
     85 H         8.330623   -1.421831   -3.050575 H        1 UNL1     0.0428
     86 H         6.616426   0.085217   -2.043009 H        1 UNL1     0.0317
     87 H         5.402578   -1.109709   -2.075834 H        1 UNL1     0.0317
     88 H         7.082725   -5.007471   -2.762849 H        1 UNL1     0.0429
     89 H         8.236187   -4.458916   -3.981392 H        1 UNL1     0.0429
     90 H         8.338738   -4.317241   -0.979352 H        1 UNL1     0.0308
     91 H         10.434508   -5.196832   -1.316084 H        1 UNL1     0.0233
     92 H         9.966136   -5.368193   -3.026861 H        1 UNL1     0.0233
     93 H         10.877492   -3.970409   -2.497489 H        1 UNL1     0.0233
     94 H         9.961808   -2.155373   -2.049242 H        1 UNL1     0.0233
     95 H         8.229821   -1.880952   -2.292641 H        1 UNL1     0.0233
     96 H         8.861208   -2.175472   -0.655998 H        1 UNL1     0.0233
     97 H         2.785532   5.870645   -8.928265 H        1 UNL1     0.0280
     98 H         3.430581   4.935456   -10.249826 H        1 UNL1     0.0280
     99 H         1.938832   4.393654   -9.424678 H        1 UNL1     0.0280
     100 H         5.649119   2.886193   -10.344293 H        1 UNL1     0.2922
     101 H         3.782245   3.998237   0.34873 H        1 UNL1     0.0236
     102 H         5.476699   4.321   -0.190443 H        1 UNL1     0.0236
     103 H         5.136404   3.231385   1.118157 H        1 UNL1     0.0236
     104 H         4.550432   1.722042   1.311148 H        1 UNL1     0.2098
     105 H         1.545291   -0.614481   -0.495253 H        1 UNL1     0.0234
     106 H         0.942178   -0.759098   1.179989 H        1 UNL1     0.0234
     107 H         -0.0   0.0   0.0 H        1 UNL1     0.0234
     108 H         1.287943   3.748526   -0.227999 H        1 UNL1     0.2098
     109 H         0.66735   0.196012   -1.804217 H        1 UNL1     0.0234
     110 H         -0.347773   -1.030788   -2.627195 H        1 UNL1     0.0234
     111 H         0.164674   0.388627   -3.470702 H        1 UNL1     0.0234
     112 H         0.77758   -1.506816   1.363377 H        1 UNL1     0.0342
     113 H         0.243762   -2.036881   -0.271342 H        1 UNL1     0.0342
     114 H         0.424223   -0.319192   0.09601 H        1 UNL1     0.0342
     115 H         -2.487878   3.648283   1.474063 H        1 UNL1     0.0234
     116 H         -2.463855   3.774834   -0.28781 H        1 UNL1     0.0234
     117 H         -3.575606   2.694851   0.578961 H        1 UNL1     0.0234
     118 H         0.698829   1.369767   -5.549337 H        1 UNL1     0.0309
     119 H         -0.306619   2.56745   -6.422659 H        1 UNL1     0.0309
     120 H         1.146161   1.896091   -7.130377 H        1 UNL1     0.0309
     121 H         -2.553426   5.247682   -1.953368 H        1 UNL1     0.0524
     122 H         -1.079904   4.937704   -2.880462 H        1 UNL1     0.0524
     123 H         -2.657321   4.436245   -3.539276 H        1 UNL1     0.0524
@<TRIPOS>BOND
     1     1     2    1
     2     1    42    1
     3     2     3    2
     4     3     4    1
     5     4     5    2
     6     5     7    1
     7     6    75    1
     8     6    76    1
     9     6    77    1
    10     7     9   am
    11     9    10    1
    12    10    11    2
    13    10    43    1
    14    11    14    1
    15    11    15    1
    16    12    13   ar
    17    12    27   ar
    18    12    43    1
    19    13    14    1
    20    13    30   ar
    21    14    17    2
    22    15    16    1
    23    16    17    1
    24    16    18    1
    25    16    22    1
    26    18    19    1
    27    19    20    1
    28    20    21    1
    29    21    22    1
    30    23    24    1
    31    23    88    1
    32    23    89    1
    33    24    25    1
    34    24    26    1
    35    24    90    1
    36    25    91    1
    37    25    92    1
    38    25    93    1
    39    26    94    1
    40    26    95    1
    41    26    96    1
    42    27    28   ar
    43    28    29   ar
    44    29    30   ar
    45    29    31    1
    46    30    33    1
    47    31    32    1
    48    32    33    1
    49    32    35    1
    50    34    97    1
    51    34    98    1
    52    34    99    1
    53    35    61    1
    54    36    37    1
    55    36    60    1
    56    37    38    1
    57    38    39    1
    58    39    40    1
    59    40    41    1
    60    41    42    1
    61    45   100    1
    62    47   101    1
    63    47   102    1
    64    47   103    1
    65    48   104    1
    66    49   105    1
    67    49   106    1
    68    49   107    1
    69    50   108    1
    70    51    59    1
    71    52   109    1
    72    52   110    1
    73    52   111    1
    74    53    54    1
    75    54    55    2
    76    54    56    1
    77    56   112    1
    78    56   113    1
    79    56   114    1
    80    57   115    1
    81    57   116    1
    82    57   117    1
    83    58   118    1
    84    58   119    1
    85    58   120    1
    86    59   121    1
    87    59   122    1
    88    59   123    1
    89    60    61    2
    90     1    47    1
    91     1    62    1
    92     2    63    1
    93     3    64    1
    94     4    65    1
    95     5     6    1
    96     7     8    2
    97     9    78    1
    98    15    79    1
    99    18    80    1
   100    18    81    1
   101    19    82    1
   102    19    83    1
   103    20    23    1
   104    21    84    1
   105    21    85    1
   106    22    86    1
   107    22    87    1
   108    27    45    1
   109    28    34    1
   110    32    58    1
   111    33    46    2
   112    36    51    1
   113    36    66    1
   114    37    52    1
   115    37    67    1
   116    38    53    1
   117    38    68    1
   118    42    48    1
   119    42    72    1
   120    43    44    2
   121    60    73    1
   122    61    74    1
   123    39    69    1
   124    39    57    1
   125    40    70    1
   126    40    50    1
   127    41    71    1
   128    41    49    1
