@<TRIPOS>MOLECULE
*****
 123 128 0 0 0
SMALL
GASTEIGER

@<TRIPOS>ATOM
     1 C         4.074776   -0.302317   0.604761 C.3        1 UNL1     0.0009
     2 C         4.963944   -1.011912   2.068623 C.2        1 UNL1     -0.0787
     3 C         5.610293   -0.835893   3.352094 C.2        1 UNL1     -0.0649
     4 C         6.204628   -2.033464   4.390818 C.2        1 UNL1     -0.0542
     5 C         6.586673   -2.330321   5.722356 C.2        1 UNL1     0.0115
     6 C         6.873542   -1.706855   7.116027 C.3        1 UNL1     -0.0348
     7 C         6.692627   -3.866535   6.17602 C.2        1 UNL1     0.2441
     8 O         7.758869   -4.456431   6.284075 O.2        1 UNL1     -0.2702
     9 N         5.503874   -4.411748   6.69154 N.am        1 UNL1     -0.2772
     10 C         4.735574   -4.934315   5.676671 C.2        1 UNL1     0.1049
     11 C         3.978849   -4.075318   5.0181 C.2        1 UNL1     0.0801
     12 C         4.844597   -6.431441   3.675656 C.ar        1 UNL1     0.0753
     13 C         4.20424   -5.377204   2.949615 C.ar        1 UNL1     0.0305
     14 C         3.632695   -4.217132   3.629776 C.2        1 UNL1     0.0924
     15 N         3.670115   -2.79908   5.305203 N.pl3        1 UNL1     -0.3170
     16 C         2.674217   -2.365008   4.361793 C.3        1 UNL1     0.1275
     17 N         2.924691   -3.20623   3.134059 N.2        1 UNL1     -0.2557
     18 C         1.316713   -2.801401   4.904421 C.3        1 UNL1     0.0016
     19 C         1.146386   -2.231824   6.303764 C.3        1 UNL1     0.0026
     20 N         1.240148   -0.780216   6.232557 N.3        1 UNL1     -0.3018
     21 C         2.487969   -0.264877   5.665337 C.3        1 UNL1     0.0026
     22 C         2.636518   -0.845999   4.258168 C.3        1 UNL1     0.0016
     23 C         0.797665   -0.126228   7.447938 C.3        1 UNL1     0.0012
     24 C         0.045155   -1.11741   8.349628 C.3        1 UNL1     -0.0339
     25 C         0.739988   -1.27765   9.711827 C.3        1 UNL1     -0.0615
     26 C         -1.40151   -0.68273   8.507721 C.3        1 UNL1     -0.0615
     27 C         5.278992   -7.589107   3.034384 C.ar        1 UNL1     0.1347
     28 C         5.093424   -7.822587   1.68342 C.ar        1 UNL1     0.0342
     29 C         4.504769   -6.750233   0.980068 C.ar        1 UNL1     0.1435
     30 C         4.097347   -5.569777   1.602765 C.ar        1 UNL1     0.0774
     31 O         4.157813   -6.866287   -0.320378 O.3        1 UNL1     -0.4436
     32 C         3.202252   -5.816831   -0.535826 C.3        1 UNL1     0.3143
     33 C         3.488799   -4.792461   0.543419 C.2        1 UNL1     0.2504
     34 C         5.303075   -9.133666   0.978283 C.3        1 UNL1     -0.0327
     35 O         3.520797   -5.20159   -1.790122 O.2        1 UNL1     -0.4528
     36 C         0.229694   -3.932421   -3.192244 C.3        1 UNL1     0.0854
     37 C         -0.807359   -2.932528   -2.550171 C.3        1 UNL1     0.0236
     38 C         -1.167627   -1.658797   -3.455466 C.3        1 UNL1     0.1131
     39 C         -0.005881   -0.77898   -4.070721 C.3        1 UNL1     0.0200
     40 C         1.317733   -0.36084   -3.145713 C.3        1 UNL1     0.0661
     41 C         1.269624   0.316282   -1.591106 C.3        1 UNL1     0.0091
     42 C         2.424948   0.13465   -0.177728 C.3        1 UNL1     0.0661
     43 C         4.95051   -6.289978   5.149097 C.2        1 UNL1     0.2131
     44 O         5.099306   -7.231604   5.906685 O.2        1 UNL1     -0.2851
     45 O         5.933754   -8.546957   3.805907 O.3        1 UNL1     -0.5056
     46 O         3.281869   -3.599705   0.524249 O.2        1 UNL1     -0.2836
     47 C         5.070261   0.451929   -0.317249 C.3        1 UNL1     -0.0566
     48 O         2.4893   1.589178   0.103914 O.3        1 UNL1     -0.3909
     49 C         -0.130477   0.169825   -1.03815 C.3        1 UNL1     -0.0577
     50 O         2.307943   -1.367737   -3.20373 O.3        1 UNL1     -0.3910
     51 O         0.839026   -3.503662   -4.389036 O.3        1 UNL1     -0.3753
     52 C         -0.631215   -2.827496   -1.000045 C.3        1 UNL1     -0.0564
     53 O         -2.391672   -0.922129   -2.995727 O.3        1 UNL1     -0.4608
     54 C         -2.504092   0.438718   -2.880019 C.2        1 UNL1     0.3042
     55 O         -1.633648   1.232538   -2.525032 O.2        1 UNL1     -0.2512
     56 C         -3.845389   0.969211   -3.299796 C.3        1 UNL1     0.0332
     57 C         0.260017   -1.303182   -5.558231 C.3        1 UNL1     -0.0567
     58 C         1.808195   -6.435147   -0.279267 C.3        1 UNL1     0.0210
     59 C         0.170916   -2.430553   -5.0508 C.3        1 UNL1     0.0372
     60 C         1.325716   -4.369934   -2.285338 C.2        1 UNL1     -0.0208
     61 C         2.637058   -4.477544   -2.50339 C.2        1 UNL1     0.0882
     62 H         3.977005   -1.315711   0.197103 H        1 UNL1     0.0365
     63 H         5.061463   -2.055278   1.761463 H        1 UNL1     0.0576
     64 H         5.624964   0.132266   3.857624 H        1 UNL1     0.0615
     65 H         6.222095   -2.932604   3.768946 H        1 UNL1     0.0622
     66 H         -0.357359   -4.835082   -3.412739 H        1 UNL1     0.0645
     67 H         -1.760646   -3.488934   -2.564872 H        1 UNL1     0.0362
     68 H         -1.633151   -2.1683   -4.312913 H        1 UNL1     0.0741
     69 H         -0.410826   0.183429   -4.353911 H        1 UNL1     0.0359
     70 H         1.726282   0.464581   -3.759578 H        1 UNL1     0.0600
     71 H         1.289654   1.393403   -1.848725 H        1 UNL1     0.0348
     72 H         2.989282   -0.168443   -1.071584 H        1 UNL1     0.0602
     73 H         0.905776   -4.739377   -1.382891 H        1 UNL1     0.0628
     74 H         3.15255   -4.072497   -3.374851 H        1 UNL1     0.1022
     75 H         6.656926   -0.611392   7.107523 H        1 UNL1     0.0279
     76 H         6.259778   -2.060615   7.941385 H        1 UNL1     0.0279
     77 H         7.942858   -1.714412   7.373334 H        1 UNL1     0.0279
     78 H         4.95907   -3.679575   7.142306 H        1 UNL1     0.1553
     79 H         3.766931   -2.394514   6.218377 H        1 UNL1     0.1484
     80 H         0.530103   -2.444968   4.228428 H        1 UNL1     0.0317
     81 H         1.237816   -3.893568   4.928876 H        1 UNL1     0.0317
     82 H         1.888895   -2.642571   7.003678 H        1 UNL1     0.0428
     83 H         0.172911   -2.55657   6.672459 H        1 UNL1     0.0428
     84 H         2.500569   0.82333   5.549332 H        1 UNL1     0.0428
     85 H         3.349253   -0.473945   6.314796 H        1 UNL1     0.0428
     86 H         3.48423   -0.346762   3.826733 H        1 UNL1     0.0317
     87 H         1.801045   -0.518547   3.62741 H        1 UNL1     0.0317
     88 H         1.685333   0.231242   7.986041 H        1 UNL1     0.0429
     89 H         0.18051   0.753725   7.225282 H        1 UNL1     0.0429
     90 H         0.011604   -2.096606   7.857426 H        1 UNL1     0.0308
     91 H         1.405516   -2.146052   9.719127 H        1 UNL1     0.0233
     92 H         1.315497   -0.382652   9.959571 H        1 UNL1     0.0233
     93 H         0.024899   -1.417982   10.531456 H        1 UNL1     0.0233
     94 H         -1.932123   -1.371332   9.174139 H        1 UNL1     0.0233
     95 H         -1.44523   0.316098   8.950885 H        1 UNL1     0.0233
     96 H         -1.920272   -0.664845   7.545155 H        1 UNL1     0.0233
     97 H         4.373032   -9.678382   0.84587 H        1 UNL1     0.0280
     98 H         5.719075   -8.999998   -0.028858 H        1 UNL1     0.0280
     99 H         5.991391   -9.762866   1.566011 H        1 UNL1     0.0280
     100 H         6.850337   -8.381504   3.940531 H        1 UNL1     0.2922
     101 H         4.56171   1.282937   -0.80557 H        1 UNL1     0.0236
     102 H         5.569229   -0.199967   -1.033521 H        1 UNL1     0.0236
     103 H         5.888986   0.921263   0.253373 H        1 UNL1     0.0236
     104 H         3.133517   1.721432   0.826731 H        1 UNL1     0.2098
     105 H         -0.75414   1.052538   -1.155086 H        1 UNL1     0.0234
     106 H         -0.66403   -0.717494   -1.378612 H        1 UNL1     0.0234
     107 H         0.0   -0.0   0.0 H        1 UNL1     0.0234
     108 H         1.849505   -2.21727   -3.351701 H        1 UNL1     0.2098
     109 H         -1.353066   -2.134745   -0.545359 H        1 UNL1     0.0234
     110 H         -0.685454   -3.797412   -0.494017 H        1 UNL1     0.0234
     111 H         0.361082   -2.441833   -0.730683 H        1 UNL1     0.0234
     112 H         -4.341694   0.248428   -3.95668 H        1 UNL1     0.0342
     113 H         -4.473714   1.216351   -2.445411 H        1 UNL1     0.0342
     114 H         -3.684991   1.892601   -3.873197 H        1 UNL1     0.0342
     115 H         -0.531877   -1.98441   -5.898849 H        1 UNL1     0.0234
     116 H         0.349873   -0.507134   -6.300041 H        1 UNL1     0.0234
     117 H         1.149591   -1.950665   -5.644055 H        1 UNL1     0.0234
     118 H         1.076528   -6.143502   -1.052967 H        1 UNL1     0.0309
     119 H         1.830246   -7.526711   -0.200498 H        1 UNL1     0.0309
     120 H         1.352194   -6.073309   0.648765 H        1 UNL1     0.0309
     121 H         0.066647   -2.704331   -6.100338 H        1 UNL1     0.0524
     122 H         -0.842025   -2.258074   -4.650502 H        1 UNL1     0.0524
     123 H         0.747455   -1.514552   -4.957861 H        1 UNL1     0.0524
@<TRIPOS>BOND
     1     1     2    1
     2     1    42    1
     3     2     3    2
     4     3     4    1
     5     4     5    2
     6     5     7    1
     7     6    75    1
     8     6    76    1
     9     6    77    1
    10     7     9   am
    11     9    10    1
    12    10    11    2
    13    10    43    1
    14    11    14    1
    15    11    15    1
    16    12    13   ar
    17    12    27   ar
    18    12    43    1
    19    13    14    1
    20    13    30   ar
    21    14    17    2
    22    15    16    1
    23    16    17    1
    24    16    18    1
    25    16    22    1
    26    18    19    1
    27    19    20    1
    28    20    21    1
    29    21    22    1
    30    23    24    1
    31    23    88    1
    32    23    89    1
    33    24    25    1
    34    24    26    1
    35    24    90    1
    36    25    91    1
    37    25    92    1
    38    25    93    1
    39    26    94    1
    40    26    95    1
    41    26    96    1
    42    27    28   ar
    43    28    29   ar
    44    29    30   ar
    45    29    31    1
    46    30    33    1
    47    31    32    1
    48    32    33    1
    49    32    35    1
    50    34    97    1
    51    34    98    1
    52    34    99    1
    53    35    61    1
    54    36    37    1
    55    36    60    1
    56    37    38    1
    57    38    39    1
    58    39    40    1
    59    40    41    1
    60    41    42    1
    61    45   100    1
    62    47   101    1
    63    47   102    1
    64    47   103    1
    65    48   104    1
    66    49   105    1
    67    49   106    1
    68    49   107    1
    69    50   108    1
    70    51    59    1
    71    52   109    1
    72    52   110    1
    73    52   111    1
    74    53    54    1
    75    54    55    2
    76    54    56    1
    77    56   112    1
    78    56   113    1
    79    56   114    1
    80    57   115    1
    81    57   116    1
    82    57   117    1
    83    58   118    1
    84    58   119    1
    85    58   120    1
    86    59   121    1
    87    59   122    1
    88    59   123    1
    89    60    61    2
    90     1    47    1
    91     1    62    1
    92     2    63    1
    93     3    64    1
    94     4    65    1
    95     5     6    1
    96     7     8    2
    97     9    78    1
    98    15    79    1
    99    18    80    1
   100    18    81    1
   101    19    82    1
   102    19    83    1
   103    20    23    1
   104    21    84    1
   105    21    85    1
   106    22    86    1
   107    22    87    1
   108    27    45    1
   109    28    34    1
   110    32    58    1
   111    33    46    2
   112    36    51    1
   113    36    66    1
   114    37    52    1
   115    37    67    1
   116    38    53    1
   117    38    68    1
   118    42    48    1
   119    42    72    1
   120    43    44    2
   121    60    73    1
   122    61    74    1
   123    39    69    1
   124    39    57    1
   125    40    70    1
   126    40    50    1
   127    41    71    1
   128    41    49    1
