@<TRIPOS>MOLECULE
*****
 123 128 0 0 0
SMALL
GASTEIGER

@<TRIPOS>ATOM
     1 C         2.957121   0.971596   2.711022 C.3        1 UNL1     0.0009
     2 C         2.826371   2.078447   4.192515 C.2        1 UNL1     -0.0787
     3 C         2.977964   3.382085   4.803737 C.2        1 UNL1     -0.0649
     4 C         2.530272   3.857393   6.365791 C.2        1 UNL1     -0.0542
     5 C         2.229297   4.960478   7.202268 C.2        1 UNL1     0.0115
     6 C         2.26064   6.51073   7.297448 C.3        1 UNL1     -0.0348
     7 C         1.434568   4.702023   8.572887 C.2        1 UNL1     0.2441
     8 O         1.982914   4.681016   9.666231 O.2        1 UNL1     -0.2702
     9 N         0.034444   4.761341   8.462057 N.am        1 UNL1     -0.2772
     10 C         -0.473309   3.527579   8.125393 C.2        1 UNL1     0.1049
     11 C         -0.450235   3.219328   6.841388 C.2        1 UNL1     0.0801
     12 C         -0.378799   1.106624   8.747791 C.ar        1 UNL1     0.0753
     13 C         -0.14616   0.839847   7.360954 C.ar        1 UNL1     0.0305
     14 C         -0.305716   1.877705   6.344861 C.2        1 UNL1     0.0924
     15 N         -0.203561   3.994281   5.771282 N.pl3        1 UNL1     -0.3170
     16 C         -0.472462   3.214251   4.592511 C.3        1 UNL1     0.1275
     17 N         -0.229627   1.787395   5.020104 N.2        1 UNL1     -0.2557
     18 C         -1.967768   3.322956   4.309765 C.3        1 UNL1     0.0016
     19 C         -2.333757   4.793479   4.186459 C.3        1 UNL1     0.0026
     20 N         -1.552333   5.381082   3.107049 N.3        1 UNL1     -0.3018
     21 C         -0.100108   5.2706   3.259378 C.3        1 UNL1     0.0026
     22 C         0.245612   3.785141   3.37678 C.3        1 UNL1     0.0016
     23 C         -2.033968   6.688987   2.709486 C.3        1 UNL1     0.0012
     24 C         -3.131525   7.1736   3.669838 C.3        1 UNL1     -0.0339
     25 C         -4.276148   7.866217   2.912093 C.3        1 UNL1     -0.0615
     26 C         -3.638231   6.013776   4.509384 C.3        1 UNL1     -0.0615
     27 C         -0.342887   0.086045   9.695022 C.ar        1 UNL1     0.1347
     28 C         -0.124564   -1.241256   9.371511 C.ar        1 UNL1     0.0342
     29 C         0.150389   -1.47301   8.007013 C.ar        1 UNL1     0.1435
     30 C         0.153562   -0.455303   7.052298 C.ar        1 UNL1     0.0774
     31 O         0.275242   -2.725365   7.51607 O.3        1 UNL1     -0.4436
     32 C         0.069865   -2.58287   6.102427 C.3        1 UNL1     0.3143
     33 C         0.400081   -1.135625   5.798042 C.2        1 UNL1     0.2504
     34 C         -0.319872   -2.416038   10.28903 C.3        1 UNL1     -0.0327
     35 O         1.059809   -3.383769   5.445294 O.2        1 UNL1     -0.4528
     36 C         -0.513216   -4.510559   2.179712 C.3        1 UNL1     0.0854
     37 C         -1.111166   -3.639146   1.008978 C.3        1 UNL1     0.0236
     38 C         -0.485524   -3.931194   -0.438442 C.3        1 UNL1     0.1131
     39 C         1.084848   -3.935562   -0.628664 C.3        1 UNL1     0.0200
     40 C         2.024936   -2.753354   0.079189 C.3        1 UNL1     0.0661
     41 C         1.753347   -1.081319   -0.011082 C.3        1 UNL1     0.0091
     42 C         2.103336   0.24841   1.203303 C.3        1 UNL1     0.0661
     43 C         -0.748056   2.4916   9.132177 C.2        1 UNL1     0.2131
     44 O         -1.336961   2.770254   10.160905 O.2        1 UNL1     -0.2851
     45 O         -0.534784   0.437526   11.029591 O.3        1 UNL1     -0.5056
     46 O         0.798388   -0.655796   4.760271 O.2        1 UNL1     -0.2836
     47 C         4.44259   0.617361   2.431952 C.3        1 UNL1     -0.0566
     48 O         2.737489   1.146749   0.208339 O.3        1 UNL1     -0.3909
     49 C         0.355795   -0.841636   -0.537288 C.3        1 UNL1     -0.0577
     50 O         2.375054   -3.115381   1.399824 O.3        1 UNL1     -0.3910
     51 O         0.604355   -5.303547   1.848599 O.3        1 UNL1     -0.3753
     52 C         -1.467779   -2.192703   1.483929 C.3        1 UNL1     -0.0564
     53 O         -1.29369   -3.362445   -1.567918 O.3        1 UNL1     -0.4608
     54 C         -0.781562   -2.809832   -2.71259 C.2        1 UNL1     0.3042
     55 O         -0.94617   -3.198867   -3.868183 O.2        1 UNL1     -0.2512
     56 C         0.016205   -1.559837   -2.472184 C.3        1 UNL1     0.0332
     57 C         1.580653   -5.451671   -0.511334 C.3        1 UNL1     -0.0567
     58 C         -1.439083   -2.813114   5.854245 C.3        1 UNL1     0.0210
     59 C         0.768232   -6.472741   2.649845 C.3        1 UNL1     0.0372
     60 C         -0.15197   -3.751089   3.407665 C.2        1 UNL1     -0.0208
     61 C         0.936177   -3.816908   4.176005 C.2        1 UNL1     0.0882
     62 H         2.547251   0.150855   3.31194 H        1 UNL1     0.0365
     63 H         2.524971   1.359868   4.957546 H        1 UNL1     0.0576
     64 H         3.264745   4.258759   4.218666 H        1 UNL1     0.0615
     65 H         2.343012   2.912035   6.882235 H        1 UNL1     0.0622
     66 H         -1.333444   -5.181735   2.47091 H        1 UNL1     0.0645
     67 H         -2.138358   -4.024207   0.885839 H        1 UNL1     0.0362
     68 H         -0.797772   -4.978954   -0.565802 H        1 UNL1     0.0741
     69 H         1.308324   -3.817961   -1.680632 H        1 UNL1     0.0359
     70 H         2.959662   -2.881015   -0.499647 H        1 UNL1     0.0600
     71 H         2.365526   -0.833799   -0.900423 H        1 UNL1     0.0348
     72 H         2.734306   -0.603358   1.496021 H        1 UNL1     0.0602
     73 H         -0.984307   -3.168139   3.715292 H        1 UNL1     0.0628
     74 H         1.851579   -4.343916   3.904827 H        1 UNL1     0.1022
     75 H         3.287277   6.895799   7.085854 H        1 UNL1     0.0279
     76 H         1.653637   7.053427   6.57627 H        1 UNL1     0.0279
     77 H         2.098435   6.877279   8.321671 H        1 UNL1     0.0279
     78 H         -0.222858   5.410873   7.721799 H        1 UNL1     0.1553
     79 H         -0.258654   4.99614   5.784548 H        1 UNL1     0.1484
     80 H         -2.198261   2.774244   3.388595 H        1 UNL1     0.0317
     81 H         -2.552157   2.853874   5.108578 H        1 UNL1     0.0317
     82 H         -2.172879   5.333661   5.13104 H        1 UNL1     0.0428
     83 H         -3.404357   4.848098   3.986753 H        1 UNL1     0.0428
     84 H         0.461152   5.647777   2.398834 H        1 UNL1     0.0428
     85 H         0.269283   5.870522   4.102563 H        1 UNL1     0.0428
     86 H         1.318392   3.734731   3.352483 H        1 UNL1     0.0317
     87 H         -0.054019   3.257334   2.463141 H        1 UNL1     0.0317
     88 H         -1.192142   7.392062   2.757527 H        1 UNL1     0.0429
     89 H         -2.390095   6.68414   1.671254 H        1 UNL1     0.0429
     90 H         -2.698364   7.889494   4.378414 H        1 UNL1     0.0308
     91 H         -3.94709   8.812978   2.473383 H        1 UNL1     0.0233
     92 H         -4.662635   7.219473   2.120918 H        1 UNL1     0.0233
     93 H         -5.128581   8.096317   3.562667 H        1 UNL1     0.0233
     94 H         -3.040482   5.116842   4.31434 H        1 UNL1     0.0233
     95 H         -3.547964   6.254485   5.572339 H        1 UNL1     0.0233
     96 H         -4.684567   5.786962   4.286435 H        1 UNL1     0.0233
     97 H         -0.195567   -3.362472   9.771302 H        1 UNL1     0.0280
     98 H         0.408268   -2.425009   11.110606 H        1 UNL1     0.0280
     99 H         -1.335904   -2.386295   10.715516 H        1 UNL1     0.0280
     100 H         -0.271239   1.314839   11.245199 H        1 UNL1     0.2922
     101 H         4.944176   0.372152   3.367869 H        1 UNL1     0.0236
     102 H         4.970521   1.391077   1.875502 H        1 UNL1     0.0236
     103 H         4.5428   -0.290833   1.81443 H        1 UNL1     0.0236
     104 H         3.261836   0.589872   -0.399871 H        1 UNL1     0.2098
     105 H         0.309591   -0.603683   -1.597031 H        1 UNL1     0.0234
     106 H         -0.362773   -1.624244   -0.294158 H        1 UNL1     0.0234
     107 H         -0.0   0.0   0.0 H        1 UNL1     0.0234
     108 H         2.718213   -2.313504   1.839144 H        1 UNL1     0.2098
     109 H         -2.221453   -2.191462   2.283733 H        1 UNL1     0.0234
     110 H         -0.592783   -1.616842   1.8041 H        1 UNL1     0.0234
     111 H         -1.897301   -1.593773   0.669841 H        1 UNL1     0.0234
     112 H         0.933529   -1.583391   -3.068262 H        1 UNL1     0.0342
     113 H         -0.560839   -0.659685   -2.678555 H        1 UNL1     0.0342
     114 H         0.303953   -1.53503   -1.412113 H        1 UNL1     0.0342
     115 H         2.447454   -5.64902   -1.157012 H        1 UNL1     0.0234
     116 H         1.851084   -5.753106   0.502595 H        1 UNL1     0.0234
     117 H         0.85306   -6.183911   -0.901685 H        1 UNL1     0.0234
     118 H         -1.638553   -3.798381   5.397662 H        1 UNL1     0.0309
     119 H         -2.044289   -2.709173   6.760404 H        1 UNL1     0.0309
     120 H         -1.857857   -2.108501   5.127433 H        1 UNL1     0.0309
     121 H         1.243237   -6.169406   3.58243 H        1 UNL1     0.0524
     122 H         -0.195812   -6.94293   2.905928 H        1 UNL1     0.0524
     123 H         1.388358   -7.199163   2.132303 H        1 UNL1     0.0524
@<TRIPOS>BOND
     1     1     2    1
     2     1    42    1
     3     2     3    2
     4     3     4    1
     5     4     5    2
     6     5     7    1
     7     6    75    1
     8     6    76    1
     9     6    77    1
    10     7     9   am
    11     9    10    1
    12    10    11    2
    13    10    43    1
    14    11    14    1
    15    11    15    1
    16    12    13   ar
    17    12    27   ar
    18    12    43    1
    19    13    14    1
    20    13    30   ar
    21    14    17    2
    22    15    16    1
    23    16    17    1
    24    16    18    1
    25    16    22    1
    26    18    19    1
    27    19    20    1
    28    20    21    1
    29    21    22    1
    30    23    24    1
    31    23    88    1
    32    23    89    1
    33    24    25    1
    34    24    26    1
    35    24    90    1
    36    25    91    1
    37    25    92    1
    38    25    93    1
    39    26    94    1
    40    26    95    1
    41    26    96    1
    42    27    28   ar
    43    28    29   ar
    44    29    30   ar
    45    29    31    1
    46    30    33    1
    47    31    32    1
    48    32    33    1
    49    32    35    1
    50    34    97    1
    51    34    98    1
    52    34    99    1
    53    35    61    1
    54    36    37    1
    55    36    60    1
    56    37    38    1
    57    38    39    1
    58    39    40    1
    59    40    41    1
    60    41    42    1
    61    45   100    1
    62    47   101    1
    63    47   102    1
    64    47   103    1
    65    48   104    1
    66    49   105    1
    67    49   106    1
    68    49   107    1
    69    50   108    1
    70    51    59    1
    71    52   109    1
    72    52   110    1
    73    52   111    1
    74    53    54    1
    75    54    55    2
    76    54    56    1
    77    56   112    1
    78    56   113    1
    79    56   114    1
    80    57   115    1
    81    57   116    1
    82    57   117    1
    83    58   118    1
    84    58   119    1
    85    58   120    1
    86    59   121    1
    87    59   122    1
    88    59   123    1
    89    60    61    2
    90     1    47    1
    91     1    62    1
    92     2    63    1
    93     3    64    1
    94     4    65    1
    95     5     6    1
    96     7     8    2
    97     9    78    1
    98    15    79    1
    99    18    80    1
   100    18    81    1
   101    19    82    1
   102    19    83    1
   103    20    23    1
   104    21    84    1
   105    21    85    1
   106    22    86    1
   107    22    87    1
   108    27    45    1
   109    28    34    1
   110    32    58    1
   111    33    46    2
   112    36    51    1
   113    36    66    1
   114    37    52    1
   115    37    67    1
   116    38    53    1
   117    38    68    1
   118    42    48    1
   119    42    72    1
   120    43    44    2
   121    60    73    1
   122    61    74    1
   123    39    69    1
   124    39    57    1
   125    40    70    1
   126    40    50    1
   127    41    71    1
   128    41    49    1
