@<TRIPOS>MOLECULE
*****
 123 128 0 0 0
SMALL
GASTEIGER

@<TRIPOS>ATOM
     1 C         5.169308   1.740454   0.498342 C.3        1 UNL1     0.0009
     2 C         6.608502   2.544109   -0.350125 C.2        1 UNL1     -0.0787
     3 C         7.891157   2.443746   -1.014031 C.2        1 UNL1     -0.0649
     4 C         8.771676   3.677338   -1.768547 C.2        1 UNL1     -0.0542
     5 C         9.793499   3.968194   -2.705755 C.2        1 UNL1     0.0115
     6 C         10.921898   3.340797   -3.569707 C.3        1 UNL1     -0.0348
     7 C         9.892105   5.45121   -3.312328 C.2        1 UNL1     0.2441
     8 O         10.71679   6.271569   -2.933605 O.2        1 UNL1     -0.2702
     9 N         9.143872   5.659235   -4.484089 N.am        1 UNL1     -0.2772
     10 C         7.861346   6.048045   -4.172195 C.2        1 UNL1     0.1049
     11 C         7.013571   5.078049   -3.881322 C.2        1 UNL1     0.0801
     12 C         6.563582   7.657001   -2.763508 C.ar        1 UNL1     0.0753
     13 C         5.80206   6.530383   -2.316935 C.ar        1 UNL1     0.0305
     14 C         5.917777   5.224404   -2.961978 C.2        1 UNL1     0.0924
     15 N         7.134254   3.748851   -4.040057 N.pl3        1 UNL1     -0.3170
     16 C         5.86298   3.151791   -3.727589 C.3        1 UNL1     0.1275
     17 N         5.226754   4.108195   -2.748697 N.2        1 UNL1     -0.2557
     18 C         5.012011   3.212073   -4.992469 C.3        1 UNL1     0.0016
     19 C         5.767368   2.526597   -6.119921 C.3        1 UNL1     0.0026
     20 N         6.034724   1.148111   -5.733493 N.3        1 UNL1     -0.3018
     21 C         6.796072   0.986648   -4.493071 C.3        1 UNL1     0.0026
     22 C         6.016871   1.67859   -3.373268 C.3        1 UNL1     0.0016
     23 C         6.479461   0.327698   -6.842445 C.3        1 UNL1     0.0012
     24 C         5.324996   0.079965   -7.82611 C.3        1 UNL1     -0.0339
     25 C         5.353825   1.082938   -8.99113 C.3        1 UNL1     -0.0615
     26 C         5.362757   -1.354873   -8.322692 C.3        1 UNL1     -0.0615
     27 C         6.360224   8.925101   -2.224355 C.ar        1 UNL1     0.1347
     28 C         5.400254   9.196343   -1.265744 C.ar        1 UNL1     0.0342
     29 C         4.6962   8.0631   -0.806144 C.ar        1 UNL1     0.1435
     30 C         4.914268   6.780647   -1.311098 C.ar        1 UNL1     0.0774
     31 O         3.654194   8.17848   0.045865 O.3        1 UNL1     -0.4436
     32 C         2.930713   6.946816   -0.097139 C.3        1 UNL1     0.3143
     33 C         3.94314   5.951988   -0.627724 C.2        1 UNL1     0.2504
     34 C         4.955019   10.563235   -0.825888 C.3        1 UNL1     -0.0327
     35 O         2.567517   6.510891   1.218654 O.2        1 UNL1     -0.4528
     36 C         -0.678108   4.583926   0.817641 C.3        1 UNL1     0.0854
     37 C         -0.984204   3.32371   -0.079958 C.3        1 UNL1     0.0236
     38 C         -1.587915   2.063759   0.707316 C.3        1 UNL1     0.1131
     39 C         -0.864848   1.531835   2.009814 C.3        1 UNL1     0.0200
     40 C         0.796046   1.383594   2.053332 C.3        1 UNL1     0.0661
     41 C         1.7558   0.613032   0.885977 C.3        1 UNL1     0.0091
     42 C         3.464764   0.972728   0.324314 C.3        1 UNL1     0.0661
     43 C         7.514855   7.447588   -3.883099 C.2        1 UNL1     0.2131
     44 O         7.917205   8.344907   -4.6012 O.2        1 UNL1     -0.2851
     45 O         7.174815   9.958817   -2.681858 O.3        1 UNL1     -0.5056
     46 O         3.956987   4.748449   -0.496747 O.2        1 UNL1     -0.2836
     47 C         5.562957   1.310549   1.937162 C.3        1 UNL1     -0.0566
     48 O         3.910915   -0.439094   0.406937 O.3        1 UNL1     -0.3909
     49 C         0.922972   0.381613   -0.355126 C.3        1 UNL1     -0.0577
     50 O         1.397676   2.600537   2.446795 O.3        1 UNL1     -0.3910
     51 O         -0.804452   4.394665   2.208917 O.3        1 UNL1     -0.3753
     52 C         0.061599   3.161363   -1.230996 C.3        1 UNL1     -0.0564
     53 O         -2.19095   1.025621   -0.193208 O.3        1 UNL1     -0.4608
     54 C         -2.415859   -0.283955   0.141991 C.2        1 UNL1     0.3042
     55 O         -1.844682   -1.277941   -0.304759 O.2        1 UNL1     -0.2512
     56 C         -3.447032   -0.460221   1.220102 C.3        1 UNL1     0.0332
     57 C         -1.586548   2.202196   3.269949 C.3        1 UNL1     -0.0567
     58 C         1.857434   7.19349   -1.182844 C.3        1 UNL1     0.0210
     59 C         -1.147688   5.567976   2.944712 C.3        1 UNL1     0.0372
     60 C         0.652232   5.210808   0.588786 C.2        1 UNL1     -0.0208
     61 C         1.56466   5.644688   1.459399 C.2        1 UNL1     0.0882
     62 H         4.694871   2.725415   0.584794 H        1 UNL1     0.0365
     63 H         6.343826   3.598357   -0.245355 H        1 UNL1     0.0576
     64 H         8.347542   1.476117   -1.234291 H        1 UNL1     0.0615
     65 H         8.285603   4.593581   -1.422551 H        1 UNL1     0.0622
     66 H         -1.421107   5.331618   0.506263 H        1 UNL1     0.0645
     67 H         -1.848394   3.63439   -0.692506 H        1 UNL1     0.0362
     68 H         -2.534762   2.502234   1.057665 H        1 UNL1     0.0741
     69 H         -1.198291   0.52131   2.20491 H        1 UNL1     0.0359
     70 H         0.905516   0.723221   2.934799 H        1 UNL1     0.0600
     71 H         1.797123   -0.408135   1.313139 H        1 UNL1     0.0348
     72 H         3.358314   1.461261   1.303763 H        1 UNL1     0.0602
     73 H         0.771893   5.4077   -0.447633 H        1 UNL1     0.0628
     74 H         1.545281   5.434224   2.529243 H        1 UNL1     0.1022
     75 H         10.964363   2.235471   -3.416453 H        1 UNL1     0.0279
     76 H         10.809902   3.423598   -4.648442 H        1 UNL1     0.0279
     77 H         11.927013   3.643914   -3.241736 H        1 UNL1     0.0279
     78 H         9.081182   4.789304   -5.008844 H        1 UNL1     0.1553
     79 H         7.799683   3.319676   -4.656454 H        1 UNL1     0.1484
     80 H         4.049661   2.722739   -4.799594 H        1 UNL1     0.0317
     81 H         4.787471   4.24915   -5.263952 H        1 UNL1     0.0317
     82 H         6.699241   3.05634   -6.366697 H        1 UNL1     0.0428
     83 H         5.143547   2.582615   -7.012535 H        1 UNL1     0.0428
     84 H         6.91426   -0.056449   -4.183567 H        1 UNL1     0.0428
     85 H         7.826907   1.352983   -4.595515 H        1 UNL1     0.0428
     86 H         6.531622   1.427532   -2.464428 H        1 UNL1     0.0317
     87 H         5.036475   1.202572   -3.249464 H        1 UNL1     0.0317
     88 H         7.277139   0.868109   -7.368714 H        1 UNL1     0.0429
     89 H         6.910024   -0.618722   -6.490765 H        1 UNL1     0.0429
     90 H         4.371572   0.188314   -7.295587 H        1 UNL1     0.0308
     91 H         6.303423   1.036394   -9.532608 H        1 UNL1     0.0233
     92 H         4.534197   0.890061   -9.687275 H        1 UNL1     0.0233
     93 H         5.230691   2.119068   -8.653331 H        1 UNL1     0.0233
     94 H         4.66743   -1.483454   -9.159247 H        1 UNL1     0.0233
     95 H         6.367225   -1.600845   -8.678368 H        1 UNL1     0.0233
     96 H         5.08614   -2.058132   -7.5322 H        1 UNL1     0.0233
     97 H         4.160572   10.514872   -0.087142 H        1 UNL1     0.0280
     98 H         5.768046   11.13203   -0.356085 H        1 UNL1     0.0280
     99 H         4.58347   11.128232   -1.69642 H        1 UNL1     0.0280
     100 H         6.709454   10.709873   -3.00586 H        1 UNL1     0.2922
     101 H         4.698737   0.878401   2.441174 H        1 UNL1     0.0236
     102 H         6.014244   2.115255   2.516619 H        1 UNL1     0.0236
     103 H         6.317898   0.506648   1.937246 H        1 UNL1     0.0236
     104 H         4.329029   -0.565619   1.28109 H        1 UNL1     0.2098
     105 H         0.712586   1.280693   -0.928889 H        1 UNL1     0.0234
     106 H         1.291987   -0.40712   -1.010606 H        1 UNL1     0.0234
     107 H         0.0   -0.0   0.0 H        1 UNL1     0.0234
     108 H         1.198769   3.25973   1.754215 H        1 UNL1     0.2098
     109 H         1.085719   3.046283   -0.849359 H        1 UNL1     0.0234
     110 H         -0.171246   2.334528   -1.910606 H        1 UNL1     0.0234
     111 H         0.085135   4.04403   -1.883906 H        1 UNL1     0.0234
     112 H         -3.574425   -1.52393   1.442906 H        1 UNL1     0.0342
     113 H         -3.198644   0.100441   2.119994 H        1 UNL1     0.0342
     114 H         -4.405794   -0.077803   0.843676 H        1 UNL1     0.0342
     115 H         -2.651216   1.93551   3.320431 H        1 UNL1     0.0234
     116 H         -1.136763   1.941081   4.229928 H        1 UNL1     0.0234
     117 H         -1.645141   3.302577   3.209377 H        1 UNL1     0.0234
     118 H         0.956583   7.681932   -0.771872 H        1 UNL1     0.0309
     119 H         2.228934   7.780727   -2.028623 H        1 UNL1     0.0309
     120 H         1.467937   6.262092   -1.608162 H        1 UNL1     0.0309
     121 H         -0.342094   6.2892   2.809763 H        1 UNL1     0.0524
     122 H         -2.076581   6.035276   2.577523 H        1 UNL1     0.0524
     123 H         -1.265223   5.33005   3.998121 H        1 UNL1     0.0524
@<TRIPOS>BOND
     1     1     2    1
     2     1    42    1
     3     2     3    2
     4     3     4    1
     5     4     5    2
     6     5     7    1
     7     6    75    1
     8     6    76    1
     9     6    77    1
    10     7     9   am
    11     9    10    1
    12    10    11    2
    13    10    43    1
    14    11    14    1
    15    11    15    1
    16    12    13   ar
    17    12    27   ar
    18    12    43    1
    19    13    14    1
    20    13    30   ar
    21    14    17    2
    22    15    16    1
    23    16    17    1
    24    16    18    1
    25    16    22    1
    26    18    19    1
    27    19    20    1
    28    20    21    1
    29    21    22    1
    30    23    24    1
    31    23    88    1
    32    23    89    1
    33    24    25    1
    34    24    26    1
    35    24    90    1
    36    25    91    1
    37    25    92    1
    38    25    93    1
    39    26    94    1
    40    26    95    1
    41    26    96    1
    42    27    28   ar
    43    28    29   ar
    44    29    30   ar
    45    29    31    1
    46    30    33    1
    47    31    32    1
    48    32    33    1
    49    32    35    1
    50    34    97    1
    51    34    98    1
    52    34    99    1
    53    35    61    1
    54    36    37    1
    55    36    60    1
    56    37    38    1
    57    38    39    1
    58    39    40    1
    59    40    41    1
    60    41    42    1
    61    45   100    1
    62    47   101    1
    63    47   102    1
    64    47   103    1
    65    48   104    1
    66    49   105    1
    67    49   106    1
    68    49   107    1
    69    50   108    1
    70    51    59    1
    71    52   109    1
    72    52   110    1
    73    52   111    1
    74    53    54    1
    75    54    55    2
    76    54    56    1
    77    56   112    1
    78    56   113    1
    79    56   114    1
    80    57   115    1
    81    57   116    1
    82    57   117    1
    83    58   118    1
    84    58   119    1
    85    58   120    1
    86    59   121    1
    87    59   122    1
    88    59   123    1
    89    60    61    2
    90     1    47    1
    91     1    62    1
    92     2    63    1
    93     3    64    1
    94     4    65    1
    95     5     6    1
    96     7     8    2
    97     9    78    1
    98    15    79    1
    99    18    80    1
   100    18    81    1
   101    19    82    1
   102    19    83    1
   103    20    23    1
   104    21    84    1
   105    21    85    1
   106    22    86    1
   107    22    87    1
   108    27    45    1
   109    28    34    1
   110    32    58    1
   111    33    46    2
   112    36    51    1
   113    36    66    1
   114    37    52    1
   115    37    67    1
   116    38    53    1
   117    38    68    1
   118    42    48    1
   119    42    72    1
   120    43    44    2
   121    60    73    1
   122    61    74    1
   123    39    69    1
   124    39    57    1
   125    40    70    1
   126    40    50    1
   127    41    71    1
   128    41    49    1
