@<TRIPOS>MOLECULE
*****
 123 128 0 0 0
SMALL
GASTEIGER

@<TRIPOS>ATOM
     1 C         4.969803   2.244581   0.524091 C.3        1 UNL1     0.0009
     2 C         6.356995   3.11938   -0.340468 C.2        1 UNL1     -0.0787
     3 C         7.66974   3.096667   -0.950574 C.2        1 UNL1     -0.0649
     4 C         8.455289   4.348694   -1.776225 C.2        1 UNL1     -0.0542
     5 C         9.481577   4.665572   -2.70002 C.2        1 UNL1     0.0115
     6 C         10.701052   4.088573   -3.470265 C.3        1 UNL1     -0.0348
     7 C         9.45902   6.097526   -3.425271 C.2        1 UNL1     0.2441
     8 O         10.182649   7.024963   -3.089493 O.2        1 UNL1     -0.2702
     9 N         8.74323   6.13403   -4.634595 N.am        1 UNL1     -0.2772
     10 C         7.416867   6.414567   -4.399263 C.2        1 UNL1     0.1049
     11 C         6.657204   5.39008   -4.05639 C.2        1 UNL1     0.0801
     12 C         5.909911   7.99139   -3.174499 C.ar        1 UNL1     0.0753
     13 C         5.244944   6.832819   -2.660551 C.ar        1 UNL1     0.0305
     14 C         5.515133   5.497817   -3.189532 C.2        1 UNL1     0.0924
     15 N         6.914434   4.071539   -4.098934 N.pl3        1 UNL1     -0.3170
     16 C         5.696138   3.37566   -3.779935 C.3        1 UNL1     0.1275
     17 N         4.928919   4.338013   -2.906451 N.2        1 UNL1     -0.2557
     18 C         4.896585   3.247782   -5.073018 C.3        1 UNL1     0.0016
     19 C         5.761789   2.554253   -6.113224 C.3        1 UNL1     0.0026
     20 N         6.147079   1.245405   -5.603816 N.3        1 UNL1     -0.3018
     21 C         6.868483   1.261905   -4.329582 C.3        1 UNL1     0.0026
     22 C         5.979254   1.958815   -3.298329 C.3        1 UNL1     0.0016
     23 C         6.715932   0.388064   -6.624609 C.3        1 UNL1     0.0012
     24 C         5.633222   -0.053471   -7.621877 C.3        1 UNL1     -0.0339
     25 C         5.859716   0.56838   -9.009703 C.3        1 UNL1     -0.0615
     26 C         5.576201   -1.569623   -7.691229 C.3        1 UNL1     -0.0615
     27 C         5.560698   9.271458   -2.750714 C.ar        1 UNL1     0.1347
     28 C         4.53977   9.519951   -1.850709 C.ar        1 UNL1     0.0342
     29 C         3.932054   8.36168   -1.321319 C.ar        1 UNL1     0.1435
     30 C         4.295886   7.071612   -1.709352 C.ar        1 UNL1     0.0774
     31 O         2.849303   8.438757   -0.517133 O.3        1 UNL1     -0.4436
     32 C         2.256947   7.132617   -0.580275 C.3        1 UNL1     0.3143
     33 C         3.383396   6.206234   -0.991543 C.2        1 UNL1     0.2504
     34 C         3.944471   10.865503   -1.542151 C.3        1 UNL1     -0.0327
     35 O         1.884077   6.769001   0.754641 O.2        1 UNL1     -0.4528
     36 C         -1.136977   4.497033   0.40898 C.3        1 UNL1     0.0854
     37 C         -1.280213   3.144406   -0.389397 C.3        1 UNL1     0.0236
     38 C         -1.789301   1.896927   0.480298 C.3        1 UNL1     0.1131
     39 C         -1.072121   1.547168   1.846165 C.3        1 UNL1     0.0200
     40 C         0.592058   1.572028   1.957195 C.3        1 UNL1     0.0661
     41 C         1.670512   0.811649   0.891188 C.3        1 UNL1     0.0091
     42 C         3.357671   1.296548   0.358488 C.3        1 UNL1     0.0661
     43 C         6.922793   7.790422   -4.240304 C.2        1 UNL1     0.2131
     44 O         7.264443   8.663443   -5.01738 O.2        1 UNL1     -0.2851
     45 O         6.288017   10.342411   -3.265986 O.3        1 UNL1     -0.5056
     46 O         3.510028   5.02469   -0.759655 O.2        1 UNL1     -0.2836
     47 C         5.34376   1.973518   2.006205 C.3        1 UNL1     -0.0566
     48 O         3.936618   -0.051583   0.574076 O.3        1 UNL1     -0.3909
     49 C         0.916681   0.39826   -0.353136 C.3        1 UNL1     -0.0577
     50 O         1.054312   2.871294   2.266957 O.3        1 UNL1     -0.3910
     51 O         -1.301725   4.408073   1.806254 O.3        1 UNL1     -0.3753
     52 C         -0.176661   2.997172   -1.487325 C.3        1 UNL1     -0.0564
     53 O         -2.249487   0.734179   -0.349504 O.3        1 UNL1     -0.4608
     54 C         -2.367902   -0.55855   0.089537 C.2        1 UNL1     0.3042
     55 O         -1.484599   -1.413474   0.141692 O.2        1 UNL1     -0.2512
     56 C         -3.738433   -0.895824   0.603934 C.3        1 UNL1     0.0332
     57 C         -1.90788   2.239757   3.0209 C.3        1 UNL1     -0.0567
     58 C         1.210598   7.181394   -1.71795 C.3        1 UNL1     0.0210
     59 C         -2.51758   4.965457   2.303131 C.3        1 UNL1     0.0372
     60 C         0.133647   5.235174   0.172715 C.2        1 UNL1     -0.0208
     61 C         0.962096   5.827697   1.033722 C.2        1 UNL1     0.0882
     62 H         4.397672   3.180116   0.511763 H        1 UNL1     0.0365
     63 H         5.985857   4.146354   -0.333388 H        1 UNL1     0.0576
     64 H         8.227771   2.165763   -1.073562 H        1 UNL1     0.0615
     65 H         7.867574   5.235714   -1.524689 H        1 UNL1     0.0622
     66 H         -1.936308   5.138176   0.011421 H        1 UNL1     0.0645
     67 H         -2.144591   3.315774   -1.054261 H        1 UNL1     0.0362
     68 H         -2.788379   2.263824   0.760928 H        1 UNL1     0.0741
     69 H         -1.312429   0.526954   2.114163 H        1 UNL1     0.0359
     70 H         0.729238   0.998947   2.894116 H        1 UNL1     0.0600
     71 H         1.794247   -0.162526   1.403663 H        1 UNL1     0.0348
     72 H         3.163169   1.848704   1.289406 H        1 UNL1     0.0602
     73 H         0.276276   5.359468   -0.872013 H        1 UNL1     0.0628
     74 H         0.919124   5.70279   2.116214 H        1 UNL1     0.1022
     75 H         10.798009   2.991518   -3.285591 H        1 UNL1     0.0279
     76 H         10.657936   4.140472   -4.55586 H        1 UNL1     0.0279
     77 H         11.661963   4.45916   -3.08424 H        1 UNL1     0.0279
     78 H         8.78818   5.222977   -5.0863 H        1 UNL1     0.1553
     79 H         7.643827   3.664011   -4.654668 H        1 UNL1     0.1484
     80 H         3.979822   2.680456   -4.871885 H        1 UNL1     0.0317
     81 H         4.582655   4.231639   -5.43788 H        1 UNL1     0.0317
     82 H         6.646512   3.154239   -6.372442 H        1 UNL1     0.0428
     83 H         5.17306   2.475013   -7.027648 H        1 UNL1     0.0428
     84 H         7.075683   0.264346   -3.929888 H        1 UNL1     0.0428
     85 H         7.861677   1.721455   -4.428054 H        1 UNL1     0.0428
     86 H         6.478033   1.834895   -2.35501 H        1 UNL1     0.0317
     87 H         5.046106   1.397328   -3.167704 H        1 UNL1     0.0317
     88 H         7.477775   0.962622   -7.167538 H        1 UNL1     0.0429
     89 H         7.222471   -0.478582   -6.18063 H        1 UNL1     0.0429
     90 H         4.651988   0.266548   -7.25177 H        1 UNL1     0.0308
     91 H         6.905845   0.481972   -9.318328 H        1 UNL1     0.0233
     92 H         5.224419   0.087148   -9.756979 H        1 UNL1     0.0233
     93 H         5.607549   1.635426   -9.035419 H        1 UNL1     0.0233
     94 H         5.118366   -1.887635   -8.634145 H        1 UNL1     0.0233
     95 H         6.587542   -1.98379   -7.650985 H        1 UNL1     0.0233
     96 H         4.991489   -1.985136   -6.865742 H        1 UNL1     0.0233
     97 H         3.123176   10.795272   -0.835204 H        1 UNL1     0.0280
     98 H         4.675231   11.546831   -1.087138 H        1 UNL1     0.0280
     99 H         3.56342   11.322082   -2.470284 H        1 UNL1     0.0280
     100 H         5.954274   10.689409   -4.074584 H        1 UNL1     0.2922
     101 H         4.438871   1.797325   2.5874 H        1 UNL1     0.0236
     102 H         5.963748   2.756305   2.441915 H        1 UNL1     0.0236
     103 H         5.934959   1.049777   2.12187 H        1 UNL1     0.0236
     104 H         4.249848   -0.09364   1.498786 H        1 UNL1     0.2098
     105 H         0.685031   1.216401   -1.03048 H        1 UNL1     0.0234
     106 H         1.362992   -0.431266   -0.901424 H        1 UNL1     0.0234
     107 H         0.0   -0.0   0.0 H        1 UNL1     0.0234
     108 H         0.96312   3.411994   1.458814 H        1 UNL1     0.2098
     109 H         -0.22434   3.800774   -2.235431 H        1 UNL1     0.0234
     110 H         0.836314   2.940489   -1.074515 H        1 UNL1     0.0234
     111 H         -0.287718   2.060528   -2.04974 H        1 UNL1     0.0234
     112 H         -4.047235   -1.875151   0.225904 H        1 UNL1     0.0342
     113 H         -3.787112   -0.863672   1.691334 H        1 UNL1     0.0342
     114 H         -4.443878   -0.147689   0.216887 H        1 UNL1     0.0342
     115 H         -2.974509   1.980975   2.970672 H        1 UNL1     0.0234
     116 H         -1.556003   1.988931   4.023556 H        1 UNL1     0.0234
     117 H         -1.951418   3.339564   2.940465 H        1 UNL1     0.0234
     118 H         0.177431   7.213155   -1.329926 H        1 UNL1     0.0309
     119 H         1.361263   8.020496   -2.404543 H        1 UNL1     0.0309
     120 H         1.220234   6.277597   -2.336953 H        1 UNL1     0.0309
     121 H         -2.346432   5.26011   3.338141 H        1 UNL1     0.0524
     122 H         -2.822125   5.867756   1.747123 H        1 UNL1     0.0524
     123 H         -3.316893   4.231753   2.249557 H        1 UNL1     0.0524
@<TRIPOS>BOND
     1     1     2    1
     2     1    42    1
     3     2     3    2
     4     3     4    1
     5     4     5    2
     6     5     7    1
     7     6    75    1
     8     6    76    1
     9     6    77    1
    10     7     9   am
    11     9    10    1
    12    10    11    2
    13    10    43    1
    14    11    14    1
    15    11    15    1
    16    12    13   ar
    17    12    27   ar
    18    12    43    1
    19    13    14    1
    20    13    30   ar
    21    14    17    2
    22    15    16    1
    23    16    17    1
    24    16    18    1
    25    16    22    1
    26    18    19    1
    27    19    20    1
    28    20    21    1
    29    21    22    1
    30    23    24    1
    31    23    88    1
    32    23    89    1
    33    24    25    1
    34    24    26    1
    35    24    90    1
    36    25    91    1
    37    25    92    1
    38    25    93    1
    39    26    94    1
    40    26    95    1
    41    26    96    1
    42    27    28   ar
    43    28    29   ar
    44    29    30   ar
    45    29    31    1
    46    30    33    1
    47    31    32    1
    48    32    33    1
    49    32    35    1
    50    34    97    1
    51    34    98    1
    52    34    99    1
    53    35    61    1
    54    36    37    1
    55    36    60    1
    56    37    38    1
    57    38    39    1
    58    39    40    1
    59    40    41    1
    60    41    42    1
    61    45   100    1
    62    47   101    1
    63    47   102    1
    64    47   103    1
    65    48   104    1
    66    49   105    1
    67    49   106    1
    68    49   107    1
    69    50   108    1
    70    51    59    1
    71    52   109    1
    72    52   110    1
    73    52   111    1
    74    53    54    1
    75    54    55    2
    76    54    56    1
    77    56   112    1
    78    56   113    1
    79    56   114    1
    80    57   115    1
    81    57   116    1
    82    57   117    1
    83    58   118    1
    84    58   119    1
    85    58   120    1
    86    59   121    1
    87    59   122    1
    88    59   123    1
    89    60    61    2
    90     1    47    1
    91     1    62    1
    92     2    63    1
    93     3    64    1
    94     4    65    1
    95     5     6    1
    96     7     8    2
    97     9    78    1
    98    15    79    1
    99    18    80    1
   100    18    81    1
   101    19    82    1
   102    19    83    1
   103    20    23    1
   104    21    84    1
   105    21    85    1
   106    22    86    1
   107    22    87    1
   108    27    45    1
   109    28    34    1
   110    32    58    1
   111    33    46    2
   112    36    51    1
   113    36    66    1
   114    37    52    1
   115    37    67    1
   116    38    53    1
   117    38    68    1
   118    42    48    1
   119    42    72    1
   120    43    44    2
   121    60    73    1
   122    61    74    1
   123    39    69    1
   124    39    57    1
   125    40    70    1
   126    40    50    1
   127    41    71    1
   128    41    49    1
