@<TRIPOS>MOLECULE
*****
 123 128 0 0 0
SMALL
GASTEIGER

@<TRIPOS>ATOM
     1 C         3.634495   4.094596   -0.022973 C.3        1 UNL1     0.0009
     2 C         5.164456   4.797625   0.752918 C.2        1 UNL1     -0.0787
     3 C         5.796996   5.730447   1.661644 C.2        1 UNL1     -0.0649
     4 C         7.435424   5.830578   2.076234 C.2        1 UNL1     -0.0542
     5 C         8.363709   6.30955   3.033287 C.2        1 UNL1     0.0115
     6 C         8.523555   7.216028   4.284714 C.3        1 UNL1     -0.0348
     7 C         9.844458   5.690029   3.057073 C.2        1 UNL1     0.2441
     8 O         10.814842   6.267071   2.586009 O.2        1 UNL1     -0.2702
     9 N         9.998307   4.563333   3.883535 N.am        1 UNL1     -0.2772
     10 C         9.704612   3.413399   3.18732 C.2        1 UNL1     0.1049
     11 C         8.425688   3.095033   3.10235 C.2        1 UNL1     0.0801
     12 C         10.185149   2.213985   1.045399 C.ar        1 UNL1     0.0753
     13 C         8.768331   2.07717   0.89534 C.ar        1 UNL1     0.0305
     14 C         7.848995   2.397935   1.984827 C.2        1 UNL1     0.0924
     15 N         7.365688   3.593988   3.761115 N.pl3        1 UNL1     -0.3170
     16 C         6.222262   2.785836   3.429875 C.3        1 UNL1     0.1275
     17 N         6.53039   2.239846   2.05704 N.2        1 UNL1     -0.2557
     18 C         6.227339   1.586897   4.373391 C.3        1 UNL1     0.0016
     19 C         6.242767   2.095566   5.806083 C.3        1 UNL1     0.0026
     20 N         5.065654   2.925942   6.020339 N.3        1 UNL1     -0.3018
     21 C         4.940482   4.071921   5.117326 C.3        1 UNL1     0.0026
     22 C         4.922325   3.53754   3.684147 C.3        1 UNL1     0.0016
     23 C         4.825779   3.213717   7.420443 C.3        1 UNL1     0.0012
     24 C         5.994676   2.710174   8.281768 C.3        1 UNL1     -0.0339
     25 C         6.419709   1.288928   7.87746 C.3        1 UNL1     -0.0615
     26 C         7.156918   3.684771   8.203452 C.3        1 UNL1     -0.0615
     27 C         11.060649   1.792898   0.047249 C.ar        1 UNL1     0.1347
     28 C         10.640743   1.186389   -1.123168 C.ar        1 UNL1     0.0342
     29 C         9.239631   1.106687   -1.270458 C.ar        1 UNL1     0.1435
     30 C         8.349395   1.557188   -0.294881 C.ar        1 UNL1     0.0774
     31 O         8.676227   0.44423   -2.304254 O.3        1 UNL1     -0.4436
     32 C         7.333468   0.17487   -1.873771 C.3        1 UNL1     0.3143
     33 C         7.040862   1.217003   -0.813321 C.2        1 UNL1     0.2504
     34 C         11.522811   0.485884   -2.118834 C.3        1 UNL1     -0.0327
     35 O         6.467421   0.451987   -2.98121 O.2        1 UNL1     -0.4528
     36 C         3.501639   -1.885031   -2.593178 C.3        1 UNL1     0.0854
     37 C         2.50413   -2.036083   -1.380873 C.3        1 UNL1     0.0236
     38 C         0.953729   -1.873224   -1.757009 C.3        1 UNL1     0.1131
     39 C         0.475354   -0.615002   -2.587855 C.3        1 UNL1     0.0200
     40 C         1.050733   0.907393   -2.222216 C.3        1 UNL1     0.0661
     41 C         1.090456   1.610454   -0.678928 C.3        1 UNL1     0.0091
     42 C         2.279405   2.797531   0.057721 C.3        1 UNL1     0.0661
     43 C         10.695507   2.737101   2.336966 C.2        1 UNL1     0.2131
     44 O         11.82751   2.543148   2.74155 O.2        1 UNL1     -0.2851
     45 O         12.42255   2.003816   0.25262 O.3        1 UNL1     -0.5056
     46 O         5.970703   1.67882   -0.485697 O.2        1 UNL1     -0.2836
     47 C         3.068369   5.075922   -1.084331 C.3        1 UNL1     -0.0566
     48 O         1.226991   3.692325   0.597057 O.3        1 UNL1     -0.3909
     49 C         0.844533   0.5337   0.354328 C.3        1 UNL1     -0.0577
     50 O         2.265108   1.160269   -2.899762 O.3        1 UNL1     -0.3910
     51 O         2.932267   -1.45727   -3.80984 O.3        1 UNL1     -0.3753
     52 C         3.103897   -1.456575   -0.058224 C.3        1 UNL1     -0.0564
     53 O         0.021628   -2.360599   -0.686506 O.3        1 UNL1     -0.4608
     54 C         -1.328105   -2.12802   -0.641145 C.2        1 UNL1     0.3042
     55 O         -2.173262   -2.471098   -1.466885 O.2        1 UNL1     -0.2512
     56 C         -1.774691   -1.419456   0.605935 C.3        1 UNL1     0.0332
     57 C         0.427841   -1.043749   -4.128014 C.3        1 UNL1     -0.0567
     58 C         7.359208   -1.220722   -1.208046 C.3        1 UNL1     0.0210
     59 C         2.363549   -2.497403   -4.60391 C.3        1 UNL1     0.0372
     60 C         4.675241   -1.006531   -2.336165 C.2        1 UNL1     -0.0208
     61 C         5.224352   -0.05452   -3.091742 C.2        1 UNL1     0.0882
     62 H         4.262134   3.376321   -0.564139 H        1 UNL1     0.0365
     63 H         5.937804   4.246384   0.213903 H        1 UNL1     0.0576
     64 H         5.210364   6.381368   2.313773 H        1 UNL1     0.0615
     65 H         7.933027   5.213817   1.32292 H        1 UNL1     0.0622
     66 H         3.908414   -2.894987   -2.743408 H        1 UNL1     0.0645
     67 H         2.555972   -3.108176   -1.123021 H        1 UNL1     0.0362
     68 H         0.837851   -2.732137   -2.43551 H        1 UNL1     0.0741
     69 H         -0.59317   -0.501032   -2.462655 H        1 UNL1     0.0359
     70 H         0.303158   1.526584   -2.754 H        1 UNL1     0.0600
     71 H         0.115463   2.136136   -0.680855 H        1 UNL1     0.0348
     72 H         2.409911   2.874104   -1.031508 H        1 UNL1     0.0602
     73 H         5.158833   -1.321581   -1.445025 H        1 UNL1     0.0628
     74 H         4.763726   0.364519   -3.986989 H        1 UNL1     0.1022
     75 H         8.14336   8.244807   4.074714 H        1 UNL1     0.0279
     76 H         7.953584   6.93104   5.166181 H        1 UNL1     0.0279
     77 H         9.576038   7.419841   4.53056 H        1 UNL1     0.0279
     78 H         9.349754   4.621872   4.665859 H        1 UNL1     0.1553
     79 H         7.435622   4.111965   4.617702 H        1 UNL1     0.1484
     80 H         5.340403   0.972794   4.175937 H        1 UNL1     0.0317
     81 H         7.097994   0.94821   4.189843 H        1 UNL1     0.0317
     82 H         7.165205   2.650923   6.031026 H        1 UNL1     0.0428
     83 H         6.248004   1.224502   6.462033 H        1 UNL1     0.0428
     84 H         4.009247   4.632275   5.246226 H        1 UNL1     0.0428
     85 H         5.727481   4.818386   5.292653 H        1 UNL1     0.0428
     86 H         4.697017   4.384044   3.06233 H        1 UNL1     0.0317
     87 H         4.056587   2.879539   3.540521 H        1 UNL1     0.0317
     88 H         4.749451   4.30269   7.537087 H        1 UNL1     0.0429
     89 H         3.872607   2.786544   7.757728 H        1 UNL1     0.0429
     90 H         5.685782   2.696299   9.333721 H        1 UNL1     0.0308
     91 H         5.720707   0.854746   7.156361 H        1 UNL1     0.0233
     92 H         7.423304   1.293968   7.445742 H        1 UNL1     0.0233
     93 H         6.458736   0.605126   8.734038 H        1 UNL1     0.0233
     94 H         6.797886   4.678256   7.913764 H        1 UNL1     0.0233
     95 H         7.637839   3.772139   9.181739 H        1 UNL1     0.0233
     96 H         7.901769   3.359581   7.47173 H        1 UNL1     0.0233
     97 H         12.293858   1.141564   -2.512281 H        1 UNL1     0.0280
     98 H         12.051825   -0.367418   -1.674678 H        1 UNL1     0.0280
     99 H         10.912465   0.124889   -2.962786 H        1 UNL1     0.0280
     100 H         12.70835   1.880153   1.140679 H        1 UNL1     0.2922
     101 H         2.41811   5.804917   -0.60123 H        1 UNL1     0.0236
     102 H         2.572679   4.571629   -1.913164 H        1 UNL1     0.0236
     103 H         3.862254   5.678513   -1.556373 H        1 UNL1     0.0236
     104 H         0.363075   3.270201   0.422613 H        1 UNL1     0.2098
     105 H         1.661619   -0.174223   0.468464 H        1 UNL1     0.0234
     106 H         0.525154   0.902338   1.329023 H        1 UNL1     0.0234
     107 H         0.0   0.0   0.0 H        1 UNL1     0.0234
     108 H         2.976946   1.154714   -2.231164 H        1 UNL1     0.2098
     109 H         2.48603   -1.695817   0.81854 H        1 UNL1     0.0234
     110 H         4.135885   -1.776028   0.12259 H        1 UNL1     0.0234
     111 H         3.165853   -0.360574   -0.088059 H        1 UNL1     0.0234
     112 H         -0.907517   -1.180671   1.229103 H        1 UNL1     0.0342
     113 H         -2.35415   -0.524723   0.383394 H        1 UNL1     0.0342
     114 H         -2.421006   -2.101537   1.175326 H        1 UNL1     0.0342
     115 H         0.810695   -2.062271   -4.280409 H        1 UNL1     0.0234
     116 H         -0.568995   -0.997952   -4.571037 H        1 UNL1     0.0234
     117 H         1.112161   -0.460854   -4.768234 H        1 UNL1     0.0234
     118 H         6.418501   -1.442971   -0.67449 H        1 UNL1     0.0309
     119 H         7.570062   -2.029875   -1.914455 H        1 UNL1     0.0309
     120 H         8.119224   -1.297947   -0.422859 H        1 UNL1     0.0309
     121 H         1.538734   -2.930299   -4.038545 H        1 UNL1     0.0524
     122 H         1.95224   -2.120296   -5.555042 H        1 UNL1     0.0524
     123 H         3.109904   -3.256867   -4.818998 H        1 UNL1     0.0524
@<TRIPOS>BOND
     1     1     2    1
     2     1    42    1
     3     2     3    2
     4     3     4    1
     5     4     5    2
     6     5     7    1
     7     6    75    1
     8     6    76    1
     9     6    77    1
    10     7     9   am
    11     9    10    1
    12    10    11    2
    13    10    43    1
    14    11    14    1
    15    11    15    1
    16    12    13   ar
    17    12    27   ar
    18    12    43    1
    19    13    14    1
    20    13    30   ar
    21    14    17    2
    22    15    16    1
    23    16    17    1
    24    16    18    1
    25    16    22    1
    26    18    19    1
    27    19    20    1
    28    20    21    1
    29    21    22    1
    30    23    24    1
    31    23    88    1
    32    23    89    1
    33    24    25    1
    34    24    26    1
    35    24    90    1
    36    25    91    1
    37    25    92    1
    38    25    93    1
    39    26    94    1
    40    26    95    1
    41    26    96    1
    42    27    28   ar
    43    28    29   ar
    44    29    30   ar
    45    29    31    1
    46    30    33    1
    47    31    32    1
    48    32    33    1
    49    32    35    1
    50    34    97    1
    51    34    98    1
    52    34    99    1
    53    35    61    1
    54    36    37    1
    55    36    60    1
    56    37    38    1
    57    38    39    1
    58    39    40    1
    59    40    41    1
    60    41    42    1
    61    45   100    1
    62    47   101    1
    63    47   102    1
    64    47   103    1
    65    48   104    1
    66    49   105    1
    67    49   106    1
    68    49   107    1
    69    50   108    1
    70    51    59    1
    71    52   109    1
    72    52   110    1
    73    52   111    1
    74    53    54    1
    75    54    55    2
    76    54    56    1
    77    56   112    1
    78    56   113    1
    79    56   114    1
    80    57   115    1
    81    57   116    1
    82    57   117    1
    83    58   118    1
    84    58   119    1
    85    58   120    1
    86    59   121    1
    87    59   122    1
    88    59   123    1
    89    60    61    2
    90     1    47    1
    91     1    62    1
    92     2    63    1
    93     3    64    1
    94     4    65    1
    95     5     6    1
    96     7     8    2
    97     9    78    1
    98    15    79    1
    99    18    80    1
   100    18    81    1
   101    19    82    1
   102    19    83    1
   103    20    23    1
   104    21    84    1
   105    21    85    1
   106    22    86    1
   107    22    87    1
   108    27    45    1
   109    28    34    1
   110    32    58    1
   111    33    46    2
   112    36    51    1
   113    36    66    1
   114    37    52    1
   115    37    67    1
   116    38    53    1
   117    38    68    1
   118    42    48    1
   119    42    72    1
   120    43    44    2
   121    60    73    1
   122    61    74    1
   123    39    69    1
   124    39    57    1
   125    40    70    1
   126    40    50    1
   127    41    71    1
   128    41    49    1
