@<TRIPOS>MOLECULE
*****
 123 128 0 0 0
SMALL
GASTEIGER

@<TRIPOS>ATOM
     1 C         3.659809   0.638265   1.805366 C.3        1 UNL1     0.0009
     2 C         4.242761   0.027147   3.455741 C.2        1 UNL1     -0.0787
     3 C         4.423106   0.229448   4.877921 C.2        1 UNL1     -0.0649
     4 C         4.983877   -0.883014   6.02436 C.2        1 UNL1     -0.0542
     5 C         5.030032   -1.205954   7.403004 C.2        1 UNL1     0.0115
     6 C         4.73079   -0.66966   8.829947 C.3        1 UNL1     -0.0348
     7 C         5.397378   -2.707073   7.837388 C.2        1 UNL1     0.2441
     8 O         6.502577   -3.028237   8.252012 O.2        1 UNL1     -0.2702
     9 N         4.29556   -3.571767   7.957606 N.am        1 UNL1     -0.2772
     10 C         4.015814   -4.164208   6.747615 C.2        1 UNL1     0.1049
     11 C         3.284192   -3.454817   5.907547 C.2        1 UNL1     0.0801
     12 C         5.082355   -5.388866   4.844976 C.ar        1 UNL1     0.0753
     13 C         4.426519   -4.456241   3.979703 C.ar        1 UNL1     0.0305
     14 C         3.401759   -3.541095   4.477123 C.2        1 UNL1     0.0924
     15 N         2.584495   -2.325664   6.112401 N.pl3        1 UNL1     -0.3170
     16 C         1.825171   -2.056853   4.920167 C.3        1 UNL1     0.1275
     17 N         2.628579   -2.689044   3.809945 N.2        1 UNL1     -0.2557
     18 C         0.531683   -2.860082   5.017187 C.3        1 UNL1     0.0016
     19 C         -0.17648   -2.487291   6.309906 C.3        1 UNL1     0.0026
     20 N         -0.447817   -1.056459   6.298796 N.3        1 UNL1     -0.3018
     21 C         0.731101   -0.201256   6.146639 C.3        1 UNL1     0.0026
     22 C         1.424455   -0.589717   4.839638 C.3        1 UNL1     0.0016
     23 C         -1.375828   -0.65039   7.335399 C.3        1 UNL1     0.0012
     24 C         -1.807704   -1.861948   8.176451 C.3        1 UNL1     -0.0339
     25 C         -1.889745   -1.50878   9.67064 C.3        1 UNL1     -0.0615
     26 C         -3.125382   -2.412095   7.658915 C.3        1 UNL1     -0.0615
     27 C         5.968903   -6.338738   4.343085 C.ar        1 UNL1     0.1347
     28 C         6.24759   -6.478155   2.995143 C.ar        1 UNL1     0.0342
     29 C         5.628148   -5.517696   2.167511 C.ar        1 UNL1     0.1435
     30 C         4.765865   -4.53748   2.660325 C.ar        1 UNL1     0.0774
     31 O         5.712969   -5.587824   0.821073 O.3        1 UNL1     -0.4436
     32 C         4.620934   -4.785798   0.34664 C.3        1 UNL1     0.3143
     33 C         4.307437   -3.832122   1.481733 C.2        1 UNL1     0.2504
     34 C         6.985382   -7.62445   2.361291 C.3        1 UNL1     -0.0327
     35 O         5.115213   -3.993031   -0.73985 O.2        1 UNL1     -0.4528
     36 C         2.155182   -3.430576   -3.048517 C.3        1 UNL1     0.0854
     37 C         0.754134   -2.779304   -2.731607 C.3        1 UNL1     0.0236
     38 C         0.350817   -1.549469   -3.678488 C.3        1 UNL1     0.1131
     39 C         1.369268   -0.358679   -3.895391 C.3        1 UNL1     0.0200
     40 C         2.213838   0.276418   -2.604736 C.3        1 UNL1     0.0661
     41 C         1.545592   0.76762   -1.124946 C.3        1 UNL1     0.0091
     42 C         2.250783   0.735598   0.5683 C.3        1 UNL1     0.0661
     43 C         4.718984   -5.369473   6.283672 C.2        1 UNL1     0.2131
     44 O         4.883399   -6.315731   7.032204 O.2        1 UNL1     -0.2851
     45 O         6.599807   -7.17924   5.257937 O.3        1 UNL1     -0.5056
     46 O         3.811467   -2.729155   1.424012 O.2        1 UNL1     -0.2836
     47 C         4.646058   1.697246   1.243358 C.3        1 UNL1     -0.0566
     48 O         1.850018   2.127903   0.884512 O.3        1 UNL1     -0.3909
     49 C         0.134328   0.232917   -1.025342 C.3        1 UNL1     -0.0577
     50 O         3.405428   -0.449607   -2.379517 O.3        1 UNL1     -0.3910
     51 O         2.949475   -2.752832   -3.995719 O.3        1 UNL1     -0.3753
     52 C         0.442904   -2.785469   -1.199273 C.3        1 UNL1     -0.0564
     53 O         -1.101483   -1.179971   -3.59711 O.3        1 UNL1     -0.4608
     54 C         -1.592979   0.095102   -3.4944 C.2        1 UNL1     0.3042
     55 O         -2.623827   0.454737   -2.927078 O.2        1 UNL1     -0.2512
     56 C         -0.703274   1.13438   -4.114917 C.3        1 UNL1     0.0332
     57 C         2.179058   -0.655934   -5.242259 C.3        1 UNL1     -0.0567
     58 C         3.423505   -5.745764   0.156479 C.3        1 UNL1     0.0210
     59 C         2.246466   -1.808011   -4.801299 C.3        1 UNL1     0.0372
     60 C         3.018179   -3.674875   -1.860782 C.2        1 UNL1     -0.0208
     61 C         4.317449   -3.439419   -1.673162 C.2        1 UNL1     0.0882
     62 H         3.951104   -0.324122   1.367566 H        1 UNL1     0.0365
     63 H         4.692908   -0.926529   3.172299 H        1 UNL1     0.0576
     64 H         4.038846   1.118519   5.3829 H        1 UNL1     0.0615
     65 H         5.413258   -1.686388   5.419624 H        1 UNL1     0.0622
     66 H         1.912852   -4.422944   -3.454138 H        1 UNL1     0.0645
     67 H         0.024844   -3.546262   -3.045408 H        1 UNL1     0.0362
     68 H         0.301379   -2.071096   -4.646467 H        1 UNL1     0.0741
     69 H         0.826833   0.499494   -4.269171 H        1 UNL1     0.0359
     70 H         2.551954   1.231809   -3.04967 H        1 UNL1     0.0600
     71 H         1.357543   1.837157   -1.343315 H        1 UNL1     0.0348
     72 H         3.107106   0.666627   -0.11819 H        1 UNL1     0.0602
     73 H         2.467687   -4.220872   -1.135458 H        1 UNL1     0.0628
     74 H         4.937799   -2.838873   -2.339307 H        1 UNL1     0.1022
     75 H         4.770441   -1.498983   9.57673 H        1 UNL1     0.0279
     76 H         5.440383   0.046815   9.237635 H        1 UNL1     0.0279
     77 H         3.693199   -0.323524   8.945244 H        1 UNL1     0.0279
     78 H         3.472969   -3.040927   8.236227 H        1 UNL1     0.1553
     79 H         2.305452   -2.000196   7.019671 H        1 UNL1     0.1484
     80 H         -0.091514   -2.641358   4.141658 H        1 UNL1     0.0317
     81 H         0.736517   -3.935821   4.995271 H        1 UNL1     0.0317
     82 H         0.413343   -2.771463   7.1938 H        1 UNL1     0.0428
     83 H         -1.095093   -3.072708   6.359788 H        1 UNL1     0.0428
     84 H         0.492553   0.86345   6.061159 H        1 UNL1     0.0428
     85 H         1.392353   -0.257044   7.022396 H        1 UNL1     0.0428
     86 H         2.199763   0.139696   4.695265 H        1 UNL1     0.0317
     87 H         0.750758   -0.415208   3.991831 H        1 UNL1     0.0317
     88 H         -0.863371   0.065532   7.991248 H        1 UNL1     0.0429
     89 H         -2.245681   -0.132434   6.91131 H        1 UNL1     0.0429
     90 H         -1.075467   -2.667862   8.047828 H        1 UNL1     0.0308
     91 H         -2.854856   -1.057881   9.920344 H        1 UNL1     0.0233
     92 H         -1.739431   -2.398449   10.286679 H        1 UNL1     0.0233
     93 H         -1.116194   -0.79278   9.973622 H        1 UNL1     0.0233
     94 H         -2.985077   -2.859696   6.669065 H        1 UNL1     0.0233
     95 H         -3.49514   -3.190914   8.331731 H        1 UNL1     0.0233
     96 H         -3.881899   -1.62645   7.578829 H        1 UNL1     0.0233
     97 H         6.682167   -7.784203   1.330868 H        1 UNL1     0.0280
     98 H         8.069454   -7.453528   2.332505 H        1 UNL1     0.0280
     99 H         6.786756   -8.549267   2.927292 H        1 UNL1     0.0280
     100 H         7.535433   -7.085283   5.295332 H        1 UNL1     0.2922
     101 H         5.275674   2.076791   2.047836 H        1 UNL1     0.0236
     102 H         4.149044   2.499926   0.699606 H        1 UNL1     0.0236
     103 H         5.352311   1.261225   0.517213 H        1 UNL1     0.0236
     104 H         2.20118   2.341798   1.771024 H        1 UNL1     0.2098
     105 H         -0.636754   0.944974   -1.30857 H        1 UNL1     0.0234
     106 H         -0.028164   -0.720029   -1.528747 H        1 UNL1     0.0234
     107 H         0.0   -0.0   0.0 H        1 UNL1     0.0234
     108 H         3.246906   -1.366517   -2.676021 H        1 UNL1     0.2098
     109 H         -0.533701   -2.336019   -0.971349 H        1 UNL1     0.0234
     110 H         0.499993   -3.78391   -0.752508 H        1 UNL1     0.0234
     111 H         1.179333   -2.198546   -0.634346 H        1 UNL1     0.0234
     112 H         0.268289   1.141119   -3.611562 H        1 UNL1     0.0342
     113 H         -0.586632   0.986144   -5.187421 H        1 UNL1     0.0342
     114 H         -1.167856   2.11845   -3.963479 H        1 UNL1     0.0342
     115 H         1.724837   -1.472619   -5.820097 H        1 UNL1     0.0234
     116 H         2.267965   0.206182   -5.906263 H        1 UNL1     0.0234
     117 H         3.192261   -1.056753   -5.067026 H        1 UNL1     0.0234
     118 H         3.197157   -6.313466   1.075982 H        1 UNL1     0.0309
     119 H         2.515425   -5.237817   -0.183495 H        1 UNL1     0.0309
     120 H         3.626461   -6.53   -0.581009 H        1 UNL1     0.0309
     121 H         2.910772   -0.96128   -4.971884 H        1 UNL1     0.0524
     122 H         1.973657   -2.219813   -5.787215 H        1 UNL1     0.0524
     123 H         1.343569   -1.479843   -4.294172 H        1 UNL1     0.0524
@<TRIPOS>BOND
     1     1     2    1
     2     1    42    1
     3     2     3    2
     4     3     4    1
     5     4     5    2
     6     5     7    1
     7     6    75    1
     8     6    76    1
     9     6    77    1
    10     7     9   am
    11     9    10    1
    12    10    11    2
    13    10    43    1
    14    11    14    1
    15    11    15    1
    16    12    13   ar
    17    12    27   ar
    18    12    43    1
    19    13    14    1
    20    13    30   ar
    21    14    17    2
    22    15    16    1
    23    16    17    1
    24    16    18    1
    25    16    22    1
    26    18    19    1
    27    19    20    1
    28    20    21    1
    29    21    22    1
    30    23    24    1
    31    23    88    1
    32    23    89    1
    33    24    25    1
    34    24    26    1
    35    24    90    1
    36    25    91    1
    37    25    92    1
    38    25    93    1
    39    26    94    1
    40    26    95    1
    41    26    96    1
    42    27    28   ar
    43    28    29   ar
    44    29    30   ar
    45    29    31    1
    46    30    33    1
    47    31    32    1
    48    32    33    1
    49    32    35    1
    50    34    97    1
    51    34    98    1
    52    34    99    1
    53    35    61    1
    54    36    37    1
    55    36    60    1
    56    37    38    1
    57    38    39    1
    58    39    40    1
    59    40    41    1
    60    41    42    1
    61    45   100    1
    62    47   101    1
    63    47   102    1
    64    47   103    1
    65    48   104    1
    66    49   105    1
    67    49   106    1
    68    49   107    1
    69    50   108    1
    70    51    59    1
    71    52   109    1
    72    52   110    1
    73    52   111    1
    74    53    54    1
    75    54    55    2
    76    54    56    1
    77    56   112    1
    78    56   113    1
    79    56   114    1
    80    57   115    1
    81    57   116    1
    82    57   117    1
    83    58   118    1
    84    58   119    1
    85    58   120    1
    86    59   121    1
    87    59   122    1
    88    59   123    1
    89    60    61    2
    90     1    47    1
    91     1    62    1
    92     2    63    1
    93     3    64    1
    94     4    65    1
    95     5     6    1
    96     7     8    2
    97     9    78    1
    98    15    79    1
    99    18    80    1
   100    18    81    1
   101    19    82    1
   102    19    83    1
   103    20    23    1
   104    21    84    1
   105    21    85    1
   106    22    86    1
   107    22    87    1
   108    27    45    1
   109    28    34    1
   110    32    58    1
   111    33    46    2
   112    36    51    1
   113    36    66    1
   114    37    52    1
   115    37    67    1
   116    38    53    1
   117    38    68    1
   118    42    48    1
   119    42    72    1
   120    43    44    2
   121    60    73    1
   122    61    74    1
   123    39    69    1
   124    39    57    1
   125    40    70    1
   126    40    50    1
   127    41    71    1
   128    41    49    1
