@<TRIPOS>MOLECULE
*****
 123 128 0 0 0
SMALL
GASTEIGER

@<TRIPOS>ATOM
     1 C         -2.697487   -0.434378   -4.291477 C.3        1 UNL1     0.0009
     2 C         -2.690308   -1.505383   -5.80473 C.2        1 UNL1     -0.0787
     3 C         -2.530438   -1.656754   -7.235665 C.2        1 UNL1     -0.0649
     4 C         -2.530842   -3.089965   -8.136923 C.2        1 UNL1     -0.0542
     5 C         -2.147716   -3.691965   -9.360805 C.2        1 UNL1     0.0115
     6 C         -1.603039   -3.403476   -10.786787 C.3        1 UNL1     -0.0348
     7 C         -2.071773   -5.293055   -9.44875 C.2        1 UNL1     0.2441
     8 O         -2.939645   -5.972219   -9.979842 O.2        1 UNL1     -0.2702
     9 N         -0.823335   -5.842999   -9.109463 N.am        1 UNL1     -0.2772
     10 C         -0.753744   -6.077068   -7.755325 C.2        1 UNL1     0.1049
     11 C         -0.429227   -5.042199   -7.001696 C.2        1 UNL1     0.0801
     12 C         -2.004685   -7.117464   -5.85531 C.ar        1 UNL1     0.0753
     13 C         -1.80416   -5.88695   -5.152292 C.ar        1 UNL1     0.0305
     14 C         -0.896079   -4.858138   -5.654273 C.2        1 UNL1     0.0924
     15 N         0.051818   -3.836614   -7.350536 N.pl3        1 UNL1     -0.3170
     16 C         0.401107   -3.136678   -6.142918 C.3        1 UNL1     0.1275
     17 N         -0.516554   -3.71372   -5.09285 N.2        1 UNL1     -0.2557
     18 C         1.811596   -3.573492   -5.75897 C.3        1 UNL1     0.0016
     19 C         2.740492   -3.30373   -6.931988 C.3        1 UNL1     0.0026
     20 N         2.699057   -1.881792   -7.244083 N.3        1 UNL1     -0.3018
     21 C         1.371518   -1.354453   -7.566449 C.3        1 UNL1     0.0026
     22 C         0.45608   -1.632127   -6.372814 C.3        1 UNL1     0.0016
     23 C         3.761524   -1.469808   -8.139671 C.3        1 UNL1     0.0012
     24 C         3.626347   -2.177368   -9.497184 C.3        1 UNL1     -0.0339
     25 C         2.339281   -3.015452   -9.568832 C.3        1 UNL1     -0.0615
     26 C         3.694828   -1.160712   -10.623462 C.3        1 UNL1     -0.0615
     27 C         -2.776443   -8.141726   -5.311807 C.ar        1 UNL1     0.1347
     28 C         -3.36276   -8.067193   -4.060916 C.ar        1 UNL1     0.0342
     29 C         -3.19245   -6.82782   -3.408143 C.ar        1 UNL1     0.1435
     30 C         -2.452191   -5.779467   -3.956041 C.ar        1 UNL1     0.0774
     31 O         -3.609801   -6.637325   -2.137499 O.3        1 UNL1     -0.4436
     32 C         -2.868917   -5.496116   -1.679671 C.3        1 UNL1     0.3143
     33 C         -2.472934   -4.750127   -2.937809 C.2        1 UNL1     0.2504
     34 C         -3.98829   -9.210093   -3.310854 C.3        1 UNL1     -0.0327
     35 O         -3.782059   -4.654035   -0.965303 O.2        1 UNL1     -0.4528
     36 C         -1.70945   -2.8674   1.665346 C.3        1 UNL1     0.0854
     37 C         -0.439366   -1.95089   1.479825 C.3        1 UNL1     0.0236
     38 C         -0.559465   -0.489819   2.129897 C.3        1 UNL1     0.1131
     39 C         -1.821644   0.409356   1.812629 C.3        1 UNL1     0.0200
     40 C         -2.411609   0.518372   0.256193 C.3        1 UNL1     0.0661
     41 C         -1.495847   0.850468   -1.132584 C.3        1 UNL1     0.0091
     42 C         -1.711907   0.284121   -2.864049 C.3        1 UNL1     0.0661
     43 C         -1.290096   -7.301621   -7.142831 C.2        1 UNL1     0.2131
     44 O         -1.054869   -8.391564   -7.632146 O.2        1 UNL1     -0.2851
     45 O         -2.959458   -9.289143   -6.080818 O.3        1 UNL1     -0.5056
     46 O         -2.247235   -3.568408   -3.073659 O.2        1 UNL1     -0.2836
     47 C         -3.992342   0.420542   -4.242027 C.3        1 UNL1     -0.0566
     48 O         -1.537832   1.635995   -3.448216 O.3        1 UNL1     -0.3909
     49 C         -0.028866   0.697125   -0.798 C.3        1 UNL1     -0.0577
     50 O         -3.327133   -0.525784   -0.007016 O.3        1 UNL1     -0.3910
     51 O         -2.845468   -2.241454   2.217692 O.3        1 UNL1     -0.3753
     52 C         0.255774   -2.192238   0.100158 C.3        1 UNL1     -0.0564
     53 O         0.755396   0.223437   2.251267 O.3        1 UNL1     -0.4608
     54 C         1.920617   -0.330233   2.71348 C.2        1 UNL1     0.3042
     55 O         2.718974   0.164762   3.508114 O.2        1 UNL1     -0.2512
     56 C         2.170812   -1.72001   2.201 C.3        1 UNL1     0.0332
     57 C         -2.876073   0.195262   2.996064 C.3        1 UNL1     -0.0567
     58 C         -1.591801   -6.046402   -1.003144 C.3        1 UNL1     0.0210
     59 C         -4.042355   -3.016339   2.16401 C.3        1 UNL1     0.0372
     60 C         -2.16273   -3.570571   0.434392 C.2        1 UNL1     -0.0208
     61 C         -3.387473   -3.729249   -0.069167 C.2        1 UNL1     0.0882
     62 H         -2.888556   -1.327166   -3.683913 H        1 UNL1     0.0365
     63 H         -2.992649   -2.463709   -5.377331 H        1 UNL1     0.0576
     64 H         -2.219058   -0.822518   -7.86828 H        1 UNL1     0.0615
     65 H         -2.928472   -3.83465   -7.442073 H        1 UNL1     0.0622
     66 H         -1.382692   -3.654768   2.359123 H        1 UNL1     0.0645
     67 H         0.32424   -2.416808   2.126652 H        1 UNL1     0.0362
     68 H         -0.658413   -0.767855   3.190288 H        1 UNL1     0.0741
     69 H         -1.584331   1.438088   2.048851 H        1 UNL1     0.0359
     70 H         -3.043319   1.421879   0.354566 H        1 UNL1     0.0600
     71 H         -1.595635   1.952981   -1.170836 H        1 UNL1     0.0348
     72 H         -2.684656   0.13612   -2.372957 H        1 UNL1     0.0602
     73 H         -1.341717   -4.09053   0.006808 H        1 UNL1     0.0628
     74 H         -4.270131   -3.188518   0.273999 H        1 UNL1     0.1022
     75 H         -1.274668   -4.350056   -11.279931 H        1 UNL1     0.0279
     76 H         -2.313152   -2.999393   -11.504789 H        1 UNL1     0.0279
     77 H         -0.665611   -2.828319   -10.775652 H        1 UNL1     0.0279
     78 H         -0.084003   -5.184166   -9.344848 H        1 UNL1     0.1553
     79 H         0.48505   -3.64446   -8.235024 H        1 UNL1     0.1484
     80 H         2.12556   -3.022149   -4.864423 H        1 UNL1     0.0317
     81 H         1.83405   -4.636494   -5.495961 H        1 UNL1     0.0317
     82 H         2.473655   -3.909699   -7.810346 H        1 UNL1     0.0428
     83 H         3.740309   -3.624121   -6.637428 H        1 UNL1     0.0428
     84 H         1.355067   -0.270736   -7.718431 H        1 UNL1     0.0428
     85 H         0.988197   -1.762314   -8.511982 H        1 UNL1     0.0428
     86 H         -0.462907   -1.118789   -6.587138 H        1 UNL1     0.0317
     87 H         0.83401   -1.114911   -5.482447 H        1 UNL1     0.0317
     88 H         3.672966   -0.387254   -8.299452 H        1 UNL1     0.0429
     89 H         4.749232   -1.64968   -7.695991 H        1 UNL1     0.0429
     90 H         4.485215   -2.843346   -9.642211 H        1 UNL1     0.0308
     91 H         2.503617   -4.029655   -9.192683 H        1 UNL1     0.0233
     92 H         1.53915   -2.544601   -8.992899 H        1 UNL1     0.0233
     93 H         1.961348   -3.113608   -10.593706 H        1 UNL1     0.0233
     94 H         4.033302   -1.642507   -11.54712 H        1 UNL1     0.0233
     95 H         2.702588   -0.739191   -10.807154 H        1 UNL1     0.0233
     96 H         4.385434   -0.346962   -10.385045 H        1 UNL1     0.0233
     97 H         -3.317273   -10.060018   -3.229643 H        1 UNL1     0.0280
     98 H         -4.250736   -8.934913   -2.280974 H        1 UNL1     0.0280
     99 H         -4.901083   -9.539212   -3.833907 H        1 UNL1     0.0280
     100 H         -3.129975   -9.126734   -6.991954 H        1 UNL1     0.2922
     101 H         -4.454029   0.44598   -5.228867 H        1 UNL1     0.0236
     102 H         -3.830855   1.420243   -3.840153 H        1 UNL1     0.0236
     103 H         -4.758395   -0.025652   -3.58608 H        1 UNL1     0.0236
     104 H         -0.770748   2.051182   -3.007567 H        1 UNL1     0.2098
     105 H         0.577532   0.300467   -1.608404 H        1 UNL1     0.0234
     106 H         0.437938   1.587969   -0.377978 H        1 UNL1     0.0234
     107 H         0.0   0.0   0.0 H        1 UNL1     0.0234
     108 H         -3.79447   -0.719297   0.828399 H        1 UNL1     0.2098
     109 H         1.093564   -1.501675   -0.069968 H        1 UNL1     0.0234
     110 H         0.598137   -3.223914   -0.034655 H        1 UNL1     0.0234
     111 H         -0.437363   -2.030357   -0.736085 H        1 UNL1     0.0234
     112 H         1.366728   -2.387028   2.526396 H        1 UNL1     0.0342
     113 H         2.283441   -1.743103   1.118121 H        1 UNL1     0.0342
     114 H         3.109333   -2.084206   2.641119 H        1 UNL1     0.0342
     115 H         -3.084849   1.131739   3.531425 H        1 UNL1     0.0234
     116 H         -3.832976   -0.216341   2.669003 H        1 UNL1     0.0234
     117 H         -2.495067   -0.43825   3.815478 H        1 UNL1     0.0234
     118 H         -0.811152   -5.27253   -0.899632 H        1 UNL1     0.0309
     119 H         -1.783854   -6.494717   -0.023179 H        1 UNL1     0.0309
     120 H         -1.100647   -6.822279   -1.600546 H        1 UNL1     0.0309
     121 H         -4.742592   -2.49657   1.510661 H        1 UNL1     0.0524
     122 H         -3.872709   -4.019224   1.738006 H        1 UNL1     0.0524
     123 H         -4.46609   -3.12281   3.158598 H        1 UNL1     0.0524
@<TRIPOS>BOND
     1     1     2    1
     2     1    42    1
     3     2     3    2
     4     3     4    1
     5     4     5    2
     6     5     7    1
     7     6    75    1
     8     6    76    1
     9     6    77    1
    10     7     9   am
    11     9    10    1
    12    10    11    2
    13    10    43    1
    14    11    14    1
    15    11    15    1
    16    12    13   ar
    17    12    27   ar
    18    12    43    1
    19    13    14    1
    20    13    30   ar
    21    14    17    2
    22    15    16    1
    23    16    17    1
    24    16    18    1
    25    16    22    1
    26    18    19    1
    27    19    20    1
    28    20    21    1
    29    21    22    1
    30    23    24    1
    31    23    88    1
    32    23    89    1
    33    24    25    1
    34    24    26    1
    35    24    90    1
    36    25    91    1
    37    25    92    1
    38    25    93    1
    39    26    94    1
    40    26    95    1
    41    26    96    1
    42    27    28   ar
    43    28    29   ar
    44    29    30   ar
    45    29    31    1
    46    30    33    1
    47    31    32    1
    48    32    33    1
    49    32    35    1
    50    34    97    1
    51    34    98    1
    52    34    99    1
    53    35    61    1
    54    36    37    1
    55    36    60    1
    56    37    38    1
    57    38    39    1
    58    39    40    1
    59    40    41    1
    60    41    42    1
    61    45   100    1
    62    47   101    1
    63    47   102    1
    64    47   103    1
    65    48   104    1
    66    49   105    1
    67    49   106    1
    68    49   107    1
    69    50   108    1
    70    51    59    1
    71    52   109    1
    72    52   110    1
    73    52   111    1
    74    53    54    1
    75    54    55    2
    76    54    56    1
    77    56   112    1
    78    56   113    1
    79    56   114    1
    80    57   115    1
    81    57   116    1
    82    57   117    1
    83    58   118    1
    84    58   119    1
    85    58   120    1
    86    59   121    1
    87    59   122    1
    88    59   123    1
    89    60    61    2
    90     1    47    1
    91     1    62    1
    92     2    63    1
    93     3    64    1
    94     4    65    1
    95     5     6    1
    96     7     8    2
    97     9    78    1
    98    15    79    1
    99    18    80    1
   100    18    81    1
   101    19    82    1
   102    19    83    1
   103    20    23    1
   104    21    84    1
   105    21    85    1
   106    22    86    1
   107    22    87    1
   108    27    45    1
   109    28    34    1
   110    32    58    1
   111    33    46    2
   112    36    51    1
   113    36    66    1
   114    37    52    1
   115    37    67    1
   116    38    53    1
   117    38    68    1
   118    42    48    1
   119    42    72    1
   120    43    44    2
   121    60    73    1
   122    61    74    1
   123    39    69    1
   124    39    57    1
   125    40    70    1
   126    40    50    1
   127    41    71    1
   128    41    49    1
