@<TRIPOS>MOLECULE
*****
 123 128 0 0 0
SMALL
GASTEIGER

@<TRIPOS>ATOM
     1 C         3.531326   -1.295303   -1.700024 C.3        1 UNL1     0.0009
     2 C         4.752715   -0.306693   -2.683841 C.2        1 UNL1     -0.0787
     3 C         5.261109   0.150824   -3.959874 C.2        1 UNL1     -0.0649
     4 C         6.491712   1.277775   -4.246148 C.2        1 UNL1     -0.0542
     5 C         7.054436   2.166453   -5.195184 C.2        1 UNL1     0.0115
     6 C         7.020353   2.597995   -6.687141 C.3        1 UNL1     -0.0348
     7 C         8.040902   3.325443   -4.684677 C.2        1 UNL1     0.2441
     8 O         9.257725   3.258389   -4.791313 O.2        1 UNL1     -0.2702
     9 N         7.405554   4.532851   -4.346077 N.am        1 UNL1     -0.2772
     10 C         7.009997   4.514243   -3.02831 C.2        1 UNL1     0.1049
     11 C         5.86125   3.914365   -2.773854 C.2        1 UNL1     0.0801
     12 C         7.828326   4.01146   -0.718574 C.ar        1 UNL1     0.0753
     13 C         6.660212   3.198493   -0.566248 C.ar        1 UNL1     0.0305
     14 C         5.573571   3.229781   -1.54261 C.2        1 UNL1     0.0924
     15 N         4.900673   3.495132   -3.615319 N.pl3        1 UNL1     -0.3170
     16 C         3.779534   3.064648   -2.822865 C.3        1 UNL1     0.1275
     17 N         4.388446   2.626838   -1.513181 N.2        1 UNL1     -0.2557
     18 C         2.945501   4.303054   -2.509109 C.3        1 UNL1     0.0016
     19 C         2.566972   4.978741   -3.817448 C.3        1 UNL1     0.0026
     20 N         1.815642   4.033556   -4.631793 N.3        1 UNL1     -0.3018
     21 C         2.513318   2.782303   -4.935077 C.3        1 UNL1     0.0026
     22 C         2.880047   2.118131   -3.606815 C.3        1 UNL1     0.0016
     23 C         1.154618   4.661012   -5.758731 C.3        1 UNL1     0.0012
     24 C         2.102334   4.734787   -6.966269 C.3        1 UNL1     -0.0339
     25 C         1.356062   5.159458   -8.241726 C.3        1 UNL1     -0.0615
     26 C         3.262824   5.665957   -6.661369 C.3        1 UNL1     -0.0615
     27 C         8.803347   4.067279   0.274571 C.ar        1 UNL1     0.1347
     28 C         8.701811   3.388323   1.47572 C.ar        1 UNL1     0.0342
     29 C         7.567235   2.556228   1.583042 C.ar        1 UNL1     0.1435
     30 C         6.6003   2.462289   0.581327 C.ar        1 UNL1     0.0774
     31 O         7.26959   1.915456   2.734488 O.3        1 UNL1     -0.4436
     32 C         5.876276   1.58972   2.618536 C.3        1 UNL1     0.3143
     33 C         5.595337   1.57557   1.129548 C.2        1 UNL1     0.2504
     34 C         9.575529   3.594445   2.681635 C.3        1 UNL1     -0.0327
     35 O         5.712709   0.245369   3.086743 O.2        1 UNL1     -0.4528
     36 C         2.205317   0.064425   4.526724 C.3        1 UNL1     0.0854
     37 C         0.825095   0.377059   3.83047 C.3        1 UNL1     0.0236
     38 C         -0.248492   -0.812552   3.893561 C.3        1 UNL1     0.1131
     39 C         0.168712   -2.271223   3.445801 C.3        1 UNL1     0.0200
     40 C         1.074049   -2.504453   2.064349 C.3        1 UNL1     0.0661
     41 C         0.744208   -1.844305   0.536926 C.3        1 UNL1     0.0091
     42 C         1.881372   -1.321756   -0.804418 C.3        1 UNL1     0.0661
     43 C         7.924103   4.862653   -1.930414 C.2        1 UNL1     0.2131
     44 O         8.626607   5.854647   -2.002331 O.2        1 UNL1     -0.2851
     45 O         9.931324   4.847245   0.028082 O.3        1 UNL1     -0.5056
     46 O         4.74721   0.954753   0.528614 O.2        1 UNL1     -0.2836
     47 C         3.86475   -2.80877   -1.790731 C.3        1 UNL1     -0.0566
     48 O         1.125578   -2.019877   -1.872368 O.3        1 UNL1     -0.3909
     49 C         -0.288756   -0.750326   0.690834 C.3        1 UNL1     -0.0577
     50 O         2.455112   -2.402002   2.347 O.3        1 UNL1     -0.3910
     51 O         2.389833   -1.264433   4.959762 O.3        1 UNL1     -0.3753
     52 C         1.003853   1.268811   2.558553 C.3        1 UNL1     -0.0564
     53 O         -1.643851   -0.381191   3.548268 O.3        1 UNL1     -0.4608
     54 C         -2.67132   -1.218022   3.199054 C.2        1 UNL1     0.3042
     55 O         -3.738811   -1.376943   3.789854 O.2        1 UNL1     -0.2512
     56 C         -2.434347   -1.957059   1.912826 C.3        1 UNL1     0.0332
     57 C         0.594619   -3.076055   4.760724 C.3        1 UNL1     -0.0567
     58 C         5.098199   2.761128   3.261908 C.3        1 UNL1     0.0210
     59 C         3.332032   -1.424219   6.019288 C.3        1 UNL1     0.0372
     60 C         3.408408   0.426898   3.729011 C.2        1 UNL1     -0.0208
     61 C         4.532974   -0.253559   3.503016 C.2        1 UNL1     0.0882
     62 H         4.00165   -0.925788   -0.780803 H        1 UNL1     0.0365
     63 H         5.406472   0.058396   -1.888993 H        1 UNL1     0.0576
     64 H         4.754155   -0.088848   -4.897245 H        1 UNL1     0.0615
     65 H         6.978838   1.38453   -3.273114 H        1 UNL1     0.0622
     66 H         2.222379   0.716836   5.411097 H        1 UNL1     0.0645
     67 H         0.357359   1.129938   4.488464 H        1 UNL1     0.0362
     68 H         -0.39335   -0.872009   4.983058 H        1 UNL1     0.0741
     69 H         -0.727207   -2.842134   3.241354 H        1 UNL1     0.0359
     70 H         0.903806   -3.586466   1.905211 H        1 UNL1     0.0600
     71 H         0.133644   -2.65964   0.101727 H        1 UNL1     0.0348
     72 H         2.462702   -1.996999   -0.159889 H        1 UNL1     0.0602
     73 H         3.327916   1.438063   3.415458 H        1 UNL1     0.0628
     74 H         4.673581   -1.308624   3.740302 H        1 UNL1     0.1022
     75 H         7.954826   3.146032   -6.958155 H        1 UNL1     0.0279
     76 H         6.996334   1.797594   -7.423246 H        1 UNL1     0.0279
     77 H         6.254675   3.360569   -6.891882 H        1 UNL1     0.0279
     78 H         6.569892   4.650927   -4.915115 H        1 UNL1     0.1553
     79 H         4.805743   3.821808   -4.559355 H        1 UNL1     0.1484
     80 H         2.056443   4.001168   -1.942357 H        1 UNL1     0.0317
     81 H         3.502171   4.998582   -1.871921 H        1 UNL1     0.0317
     82 H         3.452099   5.348694   -4.355591 H        1 UNL1     0.0428
     83 H         1.974348   5.860138   -3.570493 H        1 UNL1     0.0428
     84 H         1.898925   2.058291   -5.479265 H        1 UNL1     0.0428
     85 H         3.37843   2.945626   -5.592515 H        1 UNL1     0.0428
     86 H         3.266568   1.14951   -3.864422 H        1 UNL1     0.0317
     87 H         1.970057   1.885785   -3.040221 H        1 UNL1     0.0317
     88 H         0.287547   4.045562   -6.032052 H        1 UNL1     0.0429
     89 H         0.772572   5.655327   -5.493869 H        1 UNL1     0.0429
     90 H         2.547237   3.746886   -7.134576 H        1 UNL1     0.0308
     91 H         1.998881   5.751257   -8.900254 H        1 UNL1     0.0233
     92 H         0.993122   4.284641   -8.786317 H        1 UNL1     0.0233
     93 H         0.472956   5.772415   -8.024373 H        1 UNL1     0.0233
     94 H         3.218246   5.995871   -5.617815 H        1 UNL1     0.0233
     95 H         4.2112   5.14179   -6.808997 H        1 UNL1     0.0233
     96 H         3.244451   6.550301   -7.30446 H        1 UNL1     0.0233
     97 H         10.533524   3.093059   2.581196 H        1 UNL1     0.0280
     98 H         9.807175   4.654515   2.848514 H        1 UNL1     0.0280
     99 H         9.069403   3.196578   3.576416 H        1 UNL1     0.0280
     100 H         9.84592   5.749875   0.280249 H        1 UNL1     0.2922
     101 H         4.938101   -2.956462   -1.673425 H        1 UNL1     0.0236
     102 H         3.484011   -3.277991   -2.697293 H        1 UNL1     0.0236
     103 H         3.411412   -3.382892   -0.965466 H        1 UNL1     0.0236
     104 H         0.809889   -2.868174   -1.503988 H        1 UNL1     0.2098
     105 H         -1.303912   -1.053731   0.447496 H        1 UNL1     0.0234
     106 H         -0.268131   -0.236492   1.651811 H        1 UNL1     0.0234
     107 H         0.0   0.0   0.0 H        1 UNL1     0.0234
     108 H         2.806187   -1.662614   1.814253 H        1 UNL1     0.2098
     109 H         0.842129   0.705046   1.629184 H        1 UNL1     0.0234
     110 H         0.364876   2.158435   2.563365 H        1 UNL1     0.0234
     111 H         2.022432   1.673042   2.487568 H        1 UNL1     0.0234
     112 H         -2.72798   -3.005042   2.026218 H        1 UNL1     0.0342
     113 H         -2.951959   -1.494886   1.07359 H        1 UNL1     0.0342
     114 H         -1.357715   -1.930619   1.695275 H        1 UNL1     0.0342
     115 H         0.311141   -2.540387   5.677179 H        1 UNL1     0.0234
     116 H         0.171117   -4.080445   4.823131 H        1 UNL1     0.0234
     117 H         1.687351   -3.158481   4.891431 H        1 UNL1     0.0234
     118 H         4.869308   2.572341   4.325381 H        1 UNL1     0.0309
     119 H         5.615735   3.721476   3.171953 H        1 UNL1     0.0309
     120 H         4.109632   2.906164   2.81268 H        1 UNL1     0.0309
     121 H         2.770975   -1.506826   6.949744 H        1 UNL1     0.0524
     122 H         3.931913   -2.34312   5.910662 H        1 UNL1     0.0524
     123 H         4.000916   -0.569195   6.059564 H        1 UNL1     0.0524
@<TRIPOS>BOND
     1     1     2    1
     2     1    42    1
     3     2     3    2
     4     3     4    1
     5     4     5    2
     6     5     7    1
     7     6    75    1
     8     6    76    1
     9     6    77    1
    10     7     9   am
    11     9    10    1
    12    10    11    2
    13    10    43    1
    14    11    14    1
    15    11    15    1
    16    12    13   ar
    17    12    27   ar
    18    12    43    1
    19    13    14    1
    20    13    30   ar
    21    14    17    2
    22    15    16    1
    23    16    17    1
    24    16    18    1
    25    16    22    1
    26    18    19    1
    27    19    20    1
    28    20    21    1
    29    21    22    1
    30    23    24    1
    31    23    88    1
    32    23    89    1
    33    24    25    1
    34    24    26    1
    35    24    90    1
    36    25    91    1
    37    25    92    1
    38    25    93    1
    39    26    94    1
    40    26    95    1
    41    26    96    1
    42    27    28   ar
    43    28    29   ar
    44    29    30   ar
    45    29    31    1
    46    30    33    1
    47    31    32    1
    48    32    33    1
    49    32    35    1
    50    34    97    1
    51    34    98    1
    52    34    99    1
    53    35    61    1
    54    36    37    1
    55    36    60    1
    56    37    38    1
    57    38    39    1
    58    39    40    1
    59    40    41    1
    60    41    42    1
    61    45   100    1
    62    47   101    1
    63    47   102    1
    64    47   103    1
    65    48   104    1
    66    49   105    1
    67    49   106    1
    68    49   107    1
    69    50   108    1
    70    51    59    1
    71    52   109    1
    72    52   110    1
    73    52   111    1
    74    53    54    1
    75    54    55    2
    76    54    56    1
    77    56   112    1
    78    56   113    1
    79    56   114    1
    80    57   115    1
    81    57   116    1
    82    57   117    1
    83    58   118    1
    84    58   119    1
    85    58   120    1
    86    59   121    1
    87    59   122    1
    88    59   123    1
    89    60    61    2
    90     1    47    1
    91     1    62    1
    92     2    63    1
    93     3    64    1
    94     4    65    1
    95     5     6    1
    96     7     8    2
    97     9    78    1
    98    15    79    1
    99    18    80    1
   100    18    81    1
   101    19    82    1
   102    19    83    1
   103    20    23    1
   104    21    84    1
   105    21    85    1
   106    22    86    1
   107    22    87    1
   108    27    45    1
   109    28    34    1
   110    32    58    1
   111    33    46    2
   112    36    51    1
   113    36    66    1
   114    37    52    1
   115    37    67    1
   116    38    53    1
   117    38    68    1
   118    42    48    1
   119    42    72    1
   120    43    44    2
   121    60    73    1
   122    61    74    1
   123    39    69    1
   124    39    57    1
   125    40    70    1
   126    40    50    1
   127    41    71    1
   128    41    49    1
