@<TRIPOS>MOLECULE
*****
 123 128 0 0 0
SMALL
GASTEIGER

@<TRIPOS>ATOM
     1 C         5.159279   1.842091   -0.017321 C.3        1 UNL1     0.0009
     2 C         6.715991   2.053836   0.966979 C.2        1 UNL1     -0.0787
     3 C         7.611928   2.892166   1.735449 C.2        1 UNL1     -0.0649
     4 C         8.998723   2.426105   2.587472 C.2        1 UNL1     -0.0542
     5 C         9.906333   2.785877   3.614063 C.2        1 UNL1     0.0115
     6 C         10.342823   3.940065   4.557805 C.3        1 UNL1     -0.0348
     7 C         10.841417   1.650598   4.257296 C.2        1 UNL1     0.2441
     8 O         12.022422   1.518042   3.967156 O.2        1 UNL1     -0.2702
     9 N         10.285418   0.98752   5.365152 N.am        1 UNL1     -0.2772
     10 C         9.537635   -0.091611   4.953303 C.2        1 UNL1     0.1049
     11 C         8.300578   0.169227   4.571367 C.2        1 UNL1     0.0801
     12 C         9.610893   -2.10654   3.472753 C.ar        1 UNL1     0.0753
     13 C         8.358554   -1.663546   2.939827 C.ar        1 UNL1     0.0305
     14 C         7.600351   -0.582357   3.565296 C.2        1 UNL1     0.0924
     15 N         7.57099   1.289207   4.71234 N.pl3        1 UNL1     -0.3170
     16 C         6.229886   0.997247   4.280537 C.3        1 UNL1     0.1275
     17 N         6.391244   -0.112925   3.27098 N.2        1 UNL1     -0.2557
     18 C         5.495267   0.385088   5.469359 C.3        1 UNL1     0.0016
     19 C         5.581368   1.348208   6.642635 C.3        1 UNL1     0.0026
     20 N         4.980798   2.616181   6.25201 N.3        1 UNL1     -0.3018
     21 C         5.58106   3.252863   5.077833 C.3        1 UNL1     0.0026
     22 C         5.479516   2.269805   3.910281 C.3        1 UNL1     0.0016
     23 C         4.741277   3.497232   7.377631 C.3        1 UNL1     0.0012
     24 C         3.601931   2.953729   8.254129 C.3        1 UNL1     -0.0339
     25 C         2.77515   4.093313   8.872061 C.3        1 UNL1     -0.0615
     26 C         2.731693   2.00531   7.447924 C.3        1 UNL1     -0.0615
     27 C         10.268456   -3.21501   2.944526 C.ar        1 UNL1     0.1347
     28 C         9.754644   -3.981159   1.913477 C.ar        1 UNL1     0.0342
     29 C         8.544565   -3.497391   1.372328 C.ar        1 UNL1     0.1435
     30 C         7.892556   -2.367363   1.867445 C.ar        1 UNL1     0.0774
     31 O         7.8624   -4.194047   0.437274 O.3        1 UNL1     -0.4436
     32 C         6.52871   -3.665777   0.492728 C.3        1 UNL1     0.3143
     33 C         6.676059   -2.279623   1.086932 C.2        1 UNL1     0.2504
     34 C         10.274091   -5.318953   1.465614 C.3        1 UNL1     -0.0327
     35 O         6.081551   -3.495328   -0.857919 O.2        1 UNL1     -0.4528
     36 C         2.315832   -3.964893   -0.774491 C.3        1 UNL1     0.0854
     37 C         1.233131   -3.186328   0.0676 C.3        1 UNL1     0.0236
     38 C         0.050892   -2.529335   -0.794036 C.3        1 UNL1     0.1131
     39 C         0.399665   -1.620582   -2.040951 C.3        1 UNL1     0.0200
     40 C         1.620858   -0.488282   -1.945975 C.3        1 UNL1     0.0661
     41 C         1.812794   0.66547   -0.717306 C.3        1 UNL1     0.0091
     42 C         3.333737   1.403451   -0.004904 C.3        1 UNL1     0.0661
     43 C         10.142752   -1.400387   4.664699 C.2        1 UNL1     0.2131
     44 O         10.950395   -1.890759   5.432804 O.2        1 UNL1     -0.2851
     45 O         11.504975   -3.552484   3.490941 O.3        1 UNL1     -0.5056
     46 O         5.962243   -1.313928   0.932806 O.2        1 UNL1     -0.2836
     47 C         5.321792   2.473973   -1.425972 C.3        1 UNL1     -0.0566
     48 O         2.829345   2.796042   -0.078359 O.3        1 UNL1     -0.3909
     49 C         0.916176   0.296103   0.443357 C.3        1 UNL1     -0.0577
     50 O         2.869602   -1.070296   -2.261604 O.3        1 UNL1     -0.3910
     51 O         2.211952   -3.842453   -2.17508 O.3        1 UNL1     -0.3753
     52 C         1.865686   -2.460871   1.299889 C.3        1 UNL1     -0.0564
     53 O         -1.13028   -2.107823   0.030274 O.3        1 UNL1     -0.4608
     54 C         -1.888225   -0.986008   -0.181816 C.2        1 UNL1     0.3042
     55 O         -2.24852   -0.158916   0.65481 O.2        1 UNL1     -0.2512
     56 C         -2.24264   -0.763593   -1.624604 C.3        1 UNL1     0.0332
     57 C         0.341452   -2.54646   -3.343846 C.3        1 UNL1     -0.0567
     58 C         5.747167   -4.554699   1.487986 C.3        1 UNL1     0.0210
     59 C         1.749454   -5.01344   -2.84646 C.3        1 UNL1     0.0372
     60 C         3.728364   -3.657507   -0.420335 C.2        1 UNL1     -0.0208
     61 C         4.781732   -3.413056   -1.200979 C.2        1 UNL1     0.0882
     62 H         5.394157   0.776132   -0.123506 H        1 UNL1     0.0365
     63 H         7.159886   1.061681   0.861832 H        1 UNL1     0.0576
     64 H         7.362718   3.92861   1.973748 H        1 UNL1     0.0615
     65 H         9.203214   1.416712   2.220333 H        1 UNL1     0.0622
     66 H         2.162417   -5.021149   -0.512132 H        1 UNL1     0.0645
     67 H         0.693219   -3.981415   0.610639 H        1 UNL1     0.0362
     68 H         -0.399066   -3.441581   -1.214592 H        1 UNL1     0.0741
     69 H         -0.464675   -1.017264   -2.284532 H        1 UNL1     0.0359
     70 H         1.374176   0.132688   -2.828361 H        1 UNL1     0.0600
     71 H         1.255709   1.514175   -1.160378 H        1 UNL1     0.0348
     72 H         3.626634   0.986854   -0.97957 H        1 UNL1     0.0602
     73 H         3.860017   -3.777377   0.626349 H        1 UNL1     0.0628
     74 H         4.723452   -3.22006   -2.272704 H        1 UNL1     0.1022
     75 H         9.663536   4.818876   4.442499 H        1 UNL1     0.0279
     76 H         10.288443   3.740466   5.62564 H        1 UNL1     0.0279
     77 H         11.312034   4.376711   4.275547 H        1 UNL1     0.0279
     78 H         9.66267   1.619034   5.864604 H        1 UNL1     0.1553
     79 H         7.783686   2.012871   5.374158 H        1 UNL1     0.1484
     80 H         4.453742   0.192085   5.185208 H        1 UNL1     0.0317
     81 H         5.930202   -0.582437   5.742082 H        1 UNL1     0.0317
     82 H         6.61926   1.488706   6.978718 H        1 UNL1     0.0428
     83 H         5.052834   0.89133   7.479871 H        1 UNL1     0.0428
     84 H         5.061717   4.16162   4.758059 H        1 UNL1     0.0428
     85 H         6.608626   3.588236   5.275193 H        1 UNL1     0.0428
     86 H         5.804292   2.81508   3.043573 H        1 UNL1     0.0317
     87 H         4.426388   2.052782   3.693674 H        1 UNL1     0.0317
     88 H         5.657634   3.537415   7.98093 H        1 UNL1     0.0429
     89 H         4.530418   4.52158   7.044427 H        1 UNL1     0.0429
     90 H         4.028588   2.352189   9.065502 H        1 UNL1     0.0308
     91 H         2.529171   4.855616   8.126749 H        1 UNL1     0.0233
     92 H         1.851061   3.7073   9.30871 H        1 UNL1     0.0233
     93 H         3.307691   4.602706   9.684313 H        1 UNL1     0.0233
     94 H         1.739977   1.921515   7.905434 H        1 UNL1     0.0233
     95 H         2.602914   2.388804   6.431897 H        1 UNL1     0.0233
     96 H         3.173287   1.00624   7.3948 H        1 UNL1     0.0233
     97 H         9.516207   -6.093729   1.533179 H        1 UNL1     0.0280
     98 H         10.598835   -5.306846   0.416971 H        1 UNL1     0.0280
     99 H         11.127326   -5.614098   2.098049 H        1 UNL1     0.0280
     100 H         12.108139   -2.834236   3.567984 H        1 UNL1     0.2922
     101 H         4.344851   2.57633   -1.897952 H        1 UNL1     0.0236
     102 H         6.027163   1.935895   -2.058354 H        1 UNL1     0.0236
     103 H         5.717329   3.502174   -1.375514 H        1 UNL1     0.0236
     104 H         1.89364   2.756504   -0.357398 H        1 UNL1     0.2098
     105 H         1.278606   -0.534111   1.044356 H        1 UNL1     0.0234
     106 H         0.633485   1.131221   1.08413 H        1 UNL1     0.0234
     107 H         -0.0   0.0   0.0 H        1 UNL1     0.0234
     108 H         3.562208   -0.444614   -1.974225 H        1 UNL1     0.2098
     109 H         2.346621   -3.163619   1.994553 H        1 UNL1     0.0234
     110 H         2.578167   -1.677708   1.019229 H        1 UNL1     0.0234
     111 H         1.106888   -1.931023   1.891016 H        1 UNL1     0.0234
     112 H         -1.871231   0.211901   -1.952951 H        1 UNL1     0.0342
     113 H         -1.868284   -1.560207   -2.265781 H        1 UNL1     0.0342
     114 H         -3.337882   -0.753524   -1.711243 H        1 UNL1     0.0342
     115 H         -0.018803   -1.993333   -4.222172 H        1 UNL1     0.0234
     116 H         1.298904   -2.998422   -3.610427 H        1 UNL1     0.0234
     117 H         -0.409031   -3.352864   -3.277296 H        1 UNL1     0.0234
     118 H         4.986724   -5.174509   0.98146 H        1 UNL1     0.0309
     119 H         6.395787   -5.201905   2.086835 H        1 UNL1     0.0309
     120 H         5.159764   -3.96868   2.20328 H        1 UNL1     0.0309
     121 H         2.133043   -4.982183   -3.865891 H        1 UNL1     0.0524
     122 H         2.124188   -5.939236   -2.379006 H        1 UNL1     0.0524
     123 H         0.663434   -5.037466   -2.855188 H        1 UNL1     0.0524
@<TRIPOS>BOND
     1     1     2    1
     2     1    42    1
     3     2     3    2
     4     3     4    1
     5     4     5    2
     6     5     7    1
     7     6    75    1
     8     6    76    1
     9     6    77    1
    10     7     9   am
    11     9    10    1
    12    10    11    2
    13    10    43    1
    14    11    14    1
    15    11    15    1
    16    12    13   ar
    17    12    27   ar
    18    12    43    1
    19    13    14    1
    20    13    30   ar
    21    14    17    2
    22    15    16    1
    23    16    17    1
    24    16    18    1
    25    16    22    1
    26    18    19    1
    27    19    20    1
    28    20    21    1
    29    21    22    1
    30    23    24    1
    31    23    88    1
    32    23    89    1
    33    24    25    1
    34    24    26    1
    35    24    90    1
    36    25    91    1
    37    25    92    1
    38    25    93    1
    39    26    94    1
    40    26    95    1
    41    26    96    1
    42    27    28   ar
    43    28    29   ar
    44    29    30   ar
    45    29    31    1
    46    30    33    1
    47    31    32    1
    48    32    33    1
    49    32    35    1
    50    34    97    1
    51    34    98    1
    52    34    99    1
    53    35    61    1
    54    36    37    1
    55    36    60    1
    56    37    38    1
    57    38    39    1
    58    39    40    1
    59    40    41    1
    60    41    42    1
    61    45   100    1
    62    47   101    1
    63    47   102    1
    64    47   103    1
    65    48   104    1
    66    49   105    1
    67    49   106    1
    68    49   107    1
    69    50   108    1
    70    51    59    1
    71    52   109    1
    72    52   110    1
    73    52   111    1
    74    53    54    1
    75    54    55    2
    76    54    56    1
    77    56   112    1
    78    56   113    1
    79    56   114    1
    80    57   115    1
    81    57   116    1
    82    57   117    1
    83    58   118    1
    84    58   119    1
    85    58   120    1
    86    59   121    1
    87    59   122    1
    88    59   123    1
    89    60    61    2
    90     1    47    1
    91     1    62    1
    92     2    63    1
    93     3    64    1
    94     4    65    1
    95     5     6    1
    96     7     8    2
    97     9    78    1
    98    15    79    1
    99    18    80    1
   100    18    81    1
   101    19    82    1
   102    19    83    1
   103    20    23    1
   104    21    84    1
   105    21    85    1
   106    22    86    1
   107    22    87    1
   108    27    45    1
   109    28    34    1
   110    32    58    1
   111    33    46    2
   112    36    51    1
   113    36    66    1
   114    37    52    1
   115    37    67    1
   116    38    53    1
   117    38    68    1
   118    42    48    1
   119    42    72    1
   120    43    44    2
   121    60    73    1
   122    61    74    1
   123    39    69    1
   124    39    57    1
   125    40    70    1
   126    40    50    1
   127    41    71    1
   128    41    49    1
