@<TRIPOS>MOLECULE
*****
 123 128 0 0 0
SMALL
GASTEIGER

@<TRIPOS>ATOM
     1 C         -1.680045   4.729087   -2.141637 C.3        1 UNL1     0.0009
     2 C         -2.377457   5.540642   -3.655583 C.2        1 UNL1     -0.0787
     3 C         -2.212104   6.398626   -4.809952 C.2        1 UNL1     -0.0649
     4 C         -3.326993   6.705632   -6.04653 C.2        1 UNL1     -0.0542
     5 C         -3.487997   7.165691   -7.376757 C.2        1 UNL1     0.0115
     6 C         -2.76295   7.858473   -8.563215 C.3        1 UNL1     -0.0348
     7 C         -4.843566   6.814305   -8.16158 C.2        1 UNL1     0.2441
     8 O         -5.749601   7.621068   -8.318932 O.2        1 UNL1     -0.2702
     9 N         -4.812203   5.60611   -8.879517 N.am        1 UNL1     -0.2772
     10 C         -5.199209   4.559186   -8.074843 C.2        1 UNL1     0.1049
     11 C         -4.263133   4.045656   -7.297495 C.2        1 UNL1     0.0801
     12 C         -6.979048   3.844289   -6.469094 C.ar        1 UNL1     0.0753
     13 C         -5.919762   3.494411   -5.572373 C.ar        1 UNL1     0.0305
     14 C         -4.526095   3.461674   -6.010176 C.2        1 UNL1     0.0924
     15 N         -2.932554   4.235392   -7.30683 N.pl3        1 UNL1     -0.3170
     16 C         -2.350446   3.31201   -6.369402 C.3        1 UNL1     0.1275
     17 N         -3.43869   3.069958   -5.352122 N.2        1 UNL1     -0.2557
     18 C         -2.153318   1.988199   -7.101773 C.3        1 UNL1     0.0016
     19 C         -1.310039   2.23925   -8.34171 C.3        1 UNL1     0.0026
     20 N         -0.032851   2.806524   -7.931808 N.3        1 UNL1     -0.3018
     21 C         -0.122629   4.05144   -7.165981 C.3        1 UNL1     0.0026
     22 C         -0.969982   3.775058   -5.922799 C.3        1 UNL1     0.0016
     23 C         0.952091   2.805079   -8.995073 C.3        1 UNL1     0.0012
     24 C         2.189229   3.619063   -8.584372 C.3        1 UNL1     -0.0339
     25 C         3.1162   2.80772   -7.664315 C.3        1 UNL1     -0.0615
     26 C         2.921106   4.11339   -9.82 C.3        1 UNL1     -0.0615
     27 C         -8.313349   3.756551   -6.079144 C.ar        1 UNL1     0.1347
     28 C         -8.711403   3.296381   -4.836628 C.ar        1 UNL1     0.0342
     29 C         -7.650156   3.004133   -3.95373 C.ar        1 UNL1     0.1435
     30 C         -6.308344   3.121747   -4.318324 C.ar        1 UNL1     0.0774
     31 O         -7.872895   2.441714   -2.745806 O.3        1 UNL1     -0.4436
     32 C         -6.607849   1.876602   -2.370065 C.3        1 UNL1     0.3143
     33 C         -5.575627   2.656137   -3.159403 C.2        1 UNL1     0.2504
     34 C         -10.115862   2.938242   -4.437465 C.3        1 UNL1     -0.0327
     35 O         -6.396782   2.186524   -0.987079 O.2        1 UNL1     -0.4528
     36 C         -4.303287   -0.65559   0.408541 C.3        1 UNL1     0.0854
     37 C         -2.893534   -1.18051   -0.065355 C.3        1 UNL1     0.0236
     38 C         -1.76937   -1.223847   1.077502 C.3        1 UNL1     0.1131
     39 C         -1.504219   0.057093   1.966972 C.3        1 UNL1     0.0200
     40 C         -1.431346   1.570224   1.268714 C.3        1 UNL1     0.0661
     41 C         -0.505377   1.995123   -0.087624 C.3        1 UNL1     0.0091
     42 C         -0.827291   3.224591   -1.410568 C.3        1 UNL1     0.0661
     43 C         -6.613085   4.218322   -7.857774 C.2        1 UNL1     0.2131
     44 O         -7.384865   4.154921   -8.797494 O.2        1 UNL1     -0.2851
     45 O         -9.281419   4.159452   -6.996722 O.3        1 UNL1     -0.5056
     46 O         -4.415514   2.864754   -2.882868 O.2        1 UNL1     -0.2836
     47 C         -1.526324   5.765773   -0.996371 C.3        1 UNL1     -0.0566
     48 O         0.529216   3.820118   -1.344595 O.3        1 UNL1     -0.3909
     49 C         -0.026249   0.731491   -0.766715 C.3        1 UNL1     -0.0577
     50 O         -2.721278   2.139611   1.170744 O.3        1 UNL1     -0.3910
     51 O         -4.357439   -0.129977   1.715533 O.3        1 UNL1     -0.3753
     52 C         -2.572034   -0.741759   -1.53133 C.3        1 UNL1     -0.0564
     53 O         -0.565859   -2.039611   0.705458 O.3        1 UNL1     -0.4608
     54 C         0.150455   -1.915807   -0.456221 C.2        1 UNL1     0.3042
     55 O         0.411836   -2.800495   -1.270374 O.2        1 UNL1     -0.2512
     56 C         0.593119   -0.509166   -0.742792 C.3        1 UNL1     0.0332
     57 C         -2.357345   -0.103527   3.310308 C.3        1 UNL1     -0.0567
     58 C         -6.616899   0.413059   -2.869556 C.3        1 UNL1     0.0210
     59 C         -5.660663   0.249364   2.155504 C.3        1 UNL1     0.0372
     60 C         -4.931787   0.353918   -0.486469 C.2        1 UNL1     -0.0208
     61 C         -5.547861   1.500971   -0.197562 C.2        1 UNL1     0.0882
     62 H         -2.645406   4.232343   -1.986605 H        1 UNL1     0.0365
     63 H         -3.422437   5.230563   -3.589729 H        1 UNL1     0.0576
     64 H         -1.239492   6.818064   -5.076794 H        1 UNL1     0.0615
     65 H         -4.270064   6.321392   -5.648462 H        1 UNL1     0.0622
     66 H         -4.954597   -1.540071   0.36935 H        1 UNL1     0.0645
     67 H         -3.057164   -2.255926   -0.253149 H        1 UNL1     0.0362
     68 H         -2.225193   -1.960969   1.75603 H        1 UNL1     0.0741
     69 H         -0.531604   -0.03687   2.431299 H        1 UNL1     0.0359
     70 H         -0.941528   2.133852   2.085697 H        1 UNL1     0.0600
     71 H         0.422069   2.338398   0.411339 H        1 UNL1     0.0348
     72 H         -1.476272   3.507609   -0.569117 H        1 UNL1     0.0602
     73 H         -4.947434   -0.021346   -1.479535 H        1 UNL1     0.0628
     74 H         -5.528697   1.981766   0.781063 H        1 UNL1     0.1022
     75 H         -3.259266   8.826776   -8.814401 H        1 UNL1     0.0279
     76 H         -1.732314   8.161005   -8.39195 H        1 UNL1     0.0279
     77 H         -2.87217   7.30721   -9.508667 H        1 UNL1     0.0279
     78 H         -3.861608   5.417911   -9.191009 H        1 UNL1     0.1553
     79 H         -2.427919   4.603382   -8.092235 H        1 UNL1     0.1484
     80 H         -1.668221   1.274157   -6.425318 H        1 UNL1     0.0317
     81 H         -3.116658   1.549136   -7.382575 H        1 UNL1     0.0317
     82 H         -1.824181   2.897676   -9.057283 H        1 UNL1     0.0428
     83 H         -1.183268   1.282782   -8.849793 H        1 UNL1     0.0428
     84 H         0.844108   4.41347   -6.802434 H        1 UNL1     0.0428
     85 H         -0.505383   4.880564   -7.777022 H        1 UNL1     0.0428
     86 H         -0.903496   4.664141   -5.323551 H        1 UNL1     0.0317
     87 H         -0.485097   3.012848   -5.300692 H        1 UNL1     0.0317
     88 H         1.26045   1.766643   -9.173567 H        1 UNL1     0.0429
     89 H         0.525432   3.179852   -9.934371 H        1 UNL1     0.0429
     90 H         1.865331   4.518888   -8.048071 H        1 UNL1     0.0308
     91 H         3.914892   3.432493   -7.253399 H        1 UNL1     0.0233
     92 H         2.550988   2.361754   -6.842574 H        1 UNL1     0.0233
     93 H         3.601213   1.97559   -8.188868 H        1 UNL1     0.0233
     94 H         3.511608   5.003742   -9.578304 H        1 UNL1     0.0233
     95 H         3.606811   3.34206   -10.181693 H        1 UNL1     0.0233
     96 H         2.222783   4.369061   -10.621839 H        1 UNL1     0.0233
     97 H         -10.49911   2.096524   -5.006554 H        1 UNL1     0.0280
     98 H         -10.183705   2.643348   -3.38215 H        1 UNL1     0.0280
     99 H         -10.779569   3.801643   -4.608131 H        1 UNL1     0.0280
     100 H         -9.945949   3.516676   -7.172395 H        1 UNL1     0.2922
     101 H         -0.517795   6.178583   -1.007042 H        1 UNL1     0.0236
     102 H         -1.794801   5.36726   -0.018572 H        1 UNL1     0.0236
     103 H         -2.18709   6.637672   -1.135559 H        1 UNL1     0.0236
     104 H         0.673315   4.318126   -2.172963 H        1 UNL1     0.2098
     105 H         -0.683503   0.366826   -1.552112 H        1 UNL1     0.0234
     106 H         1.003357   0.767996   -1.12239 H        1 UNL1     0.0234
     107 H         0.0   0.0   0.0 H        1 UNL1     0.0234
     108 H         -2.957221   2.477549   2.056124 H        1 UNL1     0.2098
     109 H         -3.264188   0.030121   -1.895795 H        1 UNL1     0.0234
     110 H         -1.539798   -0.399295   -1.661524 H        1 UNL1     0.0234
     111 H         -2.66499   -1.58025   -2.234352 H        1 UNL1     0.0234
     112 H         0.89647   -0.017824   0.186674 H        1 UNL1     0.0342
     113 H         1.391832   -0.473772   -1.482148 H        1 UNL1     0.0342
     114 H         -0.263815   0.043595   -1.151795 H        1 UNL1     0.0342
     115 H         -3.084956   0.710721   3.431834 H        1 UNL1     0.0234
     116 H         -2.90458   -1.045816   3.378676 H        1 UNL1     0.0234
     117 H         -1.756439   0.008763   4.229136 H        1 UNL1     0.0234
     118 H         -7.184179   -0.251779   -2.194878 H        1 UNL1     0.0309
     119 H         -7.007381   0.308689   -3.886824 H        1 UNL1     0.0309
     120 H         -5.616501   -0.033222   -2.881485 H        1 UNL1     0.0309
     121 H         -6.240222   -0.662854   2.294521 H        1 UNL1     0.0524
     122 H         -5.638106   0.778939   3.122499 H        1 UNL1     0.0524
     123 H         -6.136482   0.88664   1.415524 H        1 UNL1     0.0524
@<TRIPOS>BOND
     1     1     2    1
     2     1    42    1
     3     2     3    2
     4     3     4    1
     5     4     5    2
     6     5     7    1
     7     6    75    1
     8     6    76    1
     9     6    77    1
    10     7     9   am
    11     9    10    1
    12    10    11    2
    13    10    43    1
    14    11    14    1
    15    11    15    1
    16    12    13   ar
    17    12    27   ar
    18    12    43    1
    19    13    14    1
    20    13    30   ar
    21    14    17    2
    22    15    16    1
    23    16    17    1
    24    16    18    1
    25    16    22    1
    26    18    19    1
    27    19    20    1
    28    20    21    1
    29    21    22    1
    30    23    24    1
    31    23    88    1
    32    23    89    1
    33    24    25    1
    34    24    26    1
    35    24    90    1
    36    25    91    1
    37    25    92    1
    38    25    93    1
    39    26    94    1
    40    26    95    1
    41    26    96    1
    42    27    28   ar
    43    28    29   ar
    44    29    30   ar
    45    29    31    1
    46    30    33    1
    47    31    32    1
    48    32    33    1
    49    32    35    1
    50    34    97    1
    51    34    98    1
    52    34    99    1
    53    35    61    1
    54    36    37    1
    55    36    60    1
    56    37    38    1
    57    38    39    1
    58    39    40    1
    59    40    41    1
    60    41    42    1
    61    45   100    1
    62    47   101    1
    63    47   102    1
    64    47   103    1
    65    48   104    1
    66    49   105    1
    67    49   106    1
    68    49   107    1
    69    50   108    1
    70    51    59    1
    71    52   109    1
    72    52   110    1
    73    52   111    1
    74    53    54    1
    75    54    55    2
    76    54    56    1
    77    56   112    1
    78    56   113    1
    79    56   114    1
    80    57   115    1
    81    57   116    1
    82    57   117    1
    83    58   118    1
    84    58   119    1
    85    58   120    1
    86    59   121    1
    87    59   122    1
    88    59   123    1
    89    60    61    2
    90     1    47    1
    91     1    62    1
    92     2    63    1
    93     3    64    1
    94     4    65    1
    95     5     6    1
    96     7     8    2
    97     9    78    1
    98    15    79    1
    99    18    80    1
   100    18    81    1
   101    19    82    1
   102    19    83    1
   103    20    23    1
   104    21    84    1
   105    21    85    1
   106    22    86    1
   107    22    87    1
   108    27    45    1
   109    28    34    1
   110    32    58    1
   111    33    46    2
   112    36    51    1
   113    36    66    1
   114    37    52    1
   115    37    67    1
   116    38    53    1
   117    38    68    1
   118    42    48    1
   119    42    72    1
   120    43    44    2
   121    60    73    1
   122    61    74    1
   123    39    69    1
   124    39    57    1
   125    40    70    1
   126    40    50    1
   127    41    71    1
   128    41    49    1
