@<TRIPOS>MOLECULE
*****
 123 128 0 0 0
SMALL
GASTEIGER

@<TRIPOS>ATOM
     1 C         -4.405427   2.974854   -0.207809 C.3        1 UNL1     0.0009
     2 C         -5.30699   4.301405   -1.137585 C.2        1 UNL1     -0.0787
     3 C         -5.585113   5.702506   -1.373403 C.2        1 UNL1     -0.0649
     4 C         -6.540116   6.382607   -2.594791 C.2        1 UNL1     -0.0542
     5 C         -6.821599   7.562146   -3.327276 C.2        1 UNL1     0.0115
     6 C         -6.553264   9.090576   -3.399541 C.3        1 UNL1     -0.0348
     7 C         -7.613339   7.442274   -4.718594 C.2        1 UNL1     0.2441
     8 O         -8.802999   7.703799   -4.831903 O.2        1 UNL1     -0.2702
     9 N         -6.795355   7.269782   -5.848771 N.am        1 UNL1     -0.2772
     10 C         -6.547138   5.933348   -6.06244 C.2        1 UNL1     0.1049
     11 C         -5.567342   5.402715   -5.353462 C.2        1 UNL1     0.0801
     12 C         -7.67793   3.708835   -6.236173 C.ar        1 UNL1     0.0753
     13 C         -6.709839   3.23113   -5.296383 C.ar        1 UNL1     0.0305
     14 C         -5.543775   4.030047   -4.926142 C.2        1 UNL1     0.0924
     15 N         -4.624772   5.997202   -4.602014 N.pl3        1 UNL1     -0.3170
     16 C         -3.694135   4.98361   -4.181536 C.3        1 UNL1     0.1275
     17 N         -4.506138   3.711685   -4.157454 N.2        1 UNL1     -0.2557
     18 C         -2.673737   4.813433   -5.302933 C.3        1 UNL1     0.0016
     19 C         -2.040942   6.164915   -5.593885 C.3        1 UNL1     0.0026
     20 N         -1.406586   6.655819   -4.378305 N.3        1 UNL1     -0.3018
     21 C         -2.29744   6.793987   -3.22433 C.3        1 UNL1     0.0026
     22 C         -2.918531   5.423874   -2.946969 C.3        1 UNL1     0.0016
     23 C         -0.525842   7.781851   -4.617019 C.3        1 UNL1     0.0012
     24 C         0.921621   7.302359   -4.808578 C.3        1 UNL1     -0.0339
     25 C         1.892626   8.065161   -3.892424 C.3        1 UNL1     -0.0615
     26 C         1.006771   5.802092   -4.587831 C.3        1 UNL1     -0.0615
     27 C         -8.719997   2.895592   -6.675321 C.ar        1 UNL1     0.1347
     28 C         -8.873956   1.579511   -6.277477 C.ar        1 UNL1     0.0342
     29 C         -7.937694   1.146261   -5.314736 C.ar        1 UNL1     0.1435
     30 C         -6.909982   1.961205   -4.8384 C.ar        1 UNL1     0.0774
     31 O         -7.887838   -0.141596   -4.909834 O.3        1 UNL1     -0.4436
     32 C         -6.578842   -0.292177   -4.339985 C.3        1 UNL1     0.3143
     33 C         -6.155658   1.10797   -3.944112 C.2        1 UNL1     0.2504
     34 C         -9.809902   0.576345   -6.892101 C.3        1 UNL1     -0.0327
     35 O         -6.725646   -1.042046   -3.127798 O.2        1 UNL1     -0.4528
     36 C         -3.483973   -2.9693   -2.697288 C.3        1 UNL1     0.0854
     37 C         -2.005766   -2.42608   -2.611635 C.3        1 UNL1     0.0236
     38 C         -1.193332   -2.880496   -1.305801 C.3        1 UNL1     0.1131
     39 C         -1.835644   -2.68409   0.126375 C.3        1 UNL1     0.0200
     40 C         -2.623388   -1.265129   0.511666 C.3        1 UNL1     0.0661
     41 C         -2.018782   0.302345   0.276957 C.3        1 UNL1     0.0091
     42 C         -2.891414   1.868727   -0.110809 C.3        1 UNL1     0.0661
     43 C         -7.484111   5.069452   -6.796007 C.2        1 UNL1     0.2131
     44 O         -7.971504   5.439871   -7.848611 O.2        1 UNL1     -0.2851
     45 O         -9.645672   3.45216   -7.555545 O.3        1 UNL1     -0.5056
     46 O         -5.386144   1.444329   -3.072008 O.2        1 UNL1     -0.2836
     47 C         -5.012895   2.802346   1.21036 C.3        1 UNL1     -0.0566
     48 O         -2.179311   2.654916   0.925499 O.3        1 UNL1     -0.3909
     49 C         -0.815738   0.229612   -0.636765 C.3        1 UNL1     -0.0577
     50 O         -3.980386   -1.323156   0.120626 O.3        1 UNL1     -0.3910
     51 O         -3.963942   -3.632792   -1.549751 O.3        1 UNL1     -0.3753
     52 C         -1.879008   -0.987296   -3.210618 C.3        1 UNL1     -0.0564
     53 O         0.286742   -2.655343   -1.41075 O.3        1 UNL1     -0.4608
     54 C         1.156117   -2.577929   -0.354283 C.2        1 UNL1     0.3042
     55 O         2.380086   -2.699869   -0.383777 O.2        1 UNL1     -0.2512
     56 C         0.488572   -2.251015   0.951177 C.3        1 UNL1     0.0332
     57 C         -2.540206   -4.061499   0.531973 C.3        1 UNL1     -0.0567
     58 C         -5.659535   -0.787434   -5.480654 C.3        1 UNL1     0.0210
     59 C         -5.022233   -4.55879   -1.791434 C.3        1 UNL1     0.0372
     60 C         -4.507149   -1.952859   -3.064872 C.2        1 UNL1     -0.0208
     61 C         -5.712664   -1.713332   -2.547082 C.2        1 UNL1     0.0882
     62 H         -4.887001   2.225699   -0.847782 H        1 UNL1     0.0365
     63 H         -5.955775   3.69776   -1.775677 H        1 UNL1     0.0576
     64 H         -5.040948   6.490453   -0.847921 H        1 UNL1     0.0615
     65 H         -7.094144   5.530302   -2.997421 H        1 UNL1     0.0622
     66 H         -3.465167   -3.691222   -3.525853 H        1 UNL1     0.0645
     67 H         -1.471394   -2.97671   -3.405242 H        1 UNL1     0.0362
     68 H         -1.1744   -3.968654   -1.470348 H        1 UNL1     0.0741
     69 H         -1.050277   -2.7285   0.869097 H        1 UNL1     0.0359
     70 H         -2.649267   -1.354802   1.614548 H        1 UNL1     0.0600
     71 H         -1.535453   0.47215   1.259054 H        1 UNL1     0.0348
     72 H         -3.654423   1.189144   0.295761 H        1 UNL1     0.0602
     73 H         -4.202028   -1.45499   -3.951594 H        1 UNL1     0.0628
     74 H         -6.077136   -2.137734   -1.610984 H        1 UNL1     0.1022
     75 H         -6.215555   9.381317   -4.423482 H        1 UNL1     0.0279
     76 H         -7.41024   9.741572   -3.241854 H        1 UNL1     0.0279
     77 H         -5.691123   9.400233   -2.790833 H        1 UNL1     0.0279
     78 H         -5.899045   7.727112   -5.695294 H        1 UNL1     0.1553
     79 H         -4.37306   6.96485   -4.687053 H        1 UNL1     0.1484
     80 H         -1.921864   4.077425   -4.993503 H        1 UNL1     0.0317
     81 H         -3.148104   4.415968   -6.206619 H        1 UNL1     0.0317
     82 H         -2.778792   6.886477   -5.974461 H        1 UNL1     0.0428
     83 H         -1.318065   6.021019   -6.397498 H        1 UNL1     0.0428
     84 H         -1.781693   7.087405   -2.304698 H        1 UNL1     0.0428
     85 H         -3.04337   7.586328   -3.376318 H        1 UNL1     0.0428
     86 H         -3.455955   5.531265   -2.023048 H        1 UNL1     0.0317
     87 H         -2.132829   4.69919   -2.700794 H        1 UNL1     0.0317
     88 H         -0.853033   8.282156   -5.537854 H        1 UNL1     0.0429
     89 H         -0.594542   8.520372   -3.80792 H        1 UNL1     0.0429
     90 H         1.220411   7.46927   -5.850248 H        1 UNL1     0.0308
     91 H         2.504428   7.377537   -3.300837 H        1 UNL1     0.0233
     92 H         2.547476   8.714179   -4.47856 H        1 UNL1     0.0233
     93 H         1.370932   8.718133   -3.182284 H        1 UNL1     0.0233
     94 H         1.968518   5.541226   -4.133047 H        1 UNL1     0.0233
     95 H         0.213603   5.478872   -3.90785 H        1 UNL1     0.0233
     96 H         0.909715   5.25409   -5.529235 H        1 UNL1     0.0233
     97 H         -10.831357   0.707744   -6.547725 H        1 UNL1     0.0280
     98 H         -9.848158   0.66203   -7.985925 H        1 UNL1     0.0280
     99 H         -9.484292   -0.442885   -6.627067 H        1 UNL1     0.0280
     100 H         -9.291461   3.698963   -8.391754 H        1 UNL1     0.2922
     101 H         -6.072947   3.054353   1.189412 H        1 UNL1     0.0236
     102 H         -4.475339   3.358666   1.977514 H        1 UNL1     0.0236
     103 H         -4.98123   1.75351   1.549675 H        1 UNL1     0.0236
     104 H         -2.773064   2.73089   1.697935 H        1 UNL1     0.2098
     105 H         -0.874331   -0.546724   -1.395502 H        1 UNL1     0.0234
     106 H         -0.529362   1.179015   -1.089038 H        1 UNL1     0.0234
     107 H         0.0   0.0   0.0 H        1 UNL1     0.0234
     108 H         -4.48125   -0.740814   0.723769 H        1 UNL1     0.2098
     109 H         -0.94605   -0.491499   -2.908152 H        1 UNL1     0.0234
     110 H         -1.968007   -0.966117   -4.302118 H        1 UNL1     0.0234
     111 H         -2.689505   -0.332031   -2.864683 H        1 UNL1     0.0234
     112 H         0.070028   -3.16033   1.39312 H        1 UNL1     0.0342
     113 H         1.166194   -1.755598   1.644887 H        1 UNL1     0.0342
     114 H         -0.342644   -1.561739   0.748339 H        1 UNL1     0.0342
     115 H         -2.526513   -4.785944   -0.293969 H        1 UNL1     0.0234
     116 H         -2.095968   -4.547831   1.402709 H        1 UNL1     0.0234
     117 H         -3.624634   -3.964498   0.712384 H        1 UNL1     0.0234
     118 H         -5.580828   -1.888519   -5.501239 H        1 UNL1     0.0309
     119 H         -5.970652   -0.432088   -6.468144 H        1 UNL1     0.0309
     120 H         -4.621008   -0.462304   -5.354723 H        1 UNL1     0.0309
     121 H         -4.757374   -5.496701   -1.304065 H        1 UNL1     0.0524
     122 H         -5.980147   -4.220659   -1.362358 H        1 UNL1     0.0524
     123 H         -5.149353   -4.71399   -2.859071 H        1 UNL1     0.0524
@<TRIPOS>BOND
     1     1     2    1
     2     1    42    1
     3     2     3    2
     4     3     4    1
     5     4     5    2
     6     5     7    1
     7     6    75    1
     8     6    76    1
     9     6    77    1
    10     7     9   am
    11     9    10    1
    12    10    11    2
    13    10    43    1
    14    11    14    1
    15    11    15    1
    16    12    13   ar
    17    12    27   ar
    18    12    43    1
    19    13    14    1
    20    13    30   ar
    21    14    17    2
    22    15    16    1
    23    16    17    1
    24    16    18    1
    25    16    22    1
    26    18    19    1
    27    19    20    1
    28    20    21    1
    29    21    22    1
    30    23    24    1
    31    23    88    1
    32    23    89    1
    33    24    25    1
    34    24    26    1
    35    24    90    1
    36    25    91    1
    37    25    92    1
    38    25    93    1
    39    26    94    1
    40    26    95    1
    41    26    96    1
    42    27    28   ar
    43    28    29   ar
    44    29    30   ar
    45    29    31    1
    46    30    33    1
    47    31    32    1
    48    32    33    1
    49    32    35    1
    50    34    97    1
    51    34    98    1
    52    34    99    1
    53    35    61    1
    54    36    37    1
    55    36    60    1
    56    37    38    1
    57    38    39    1
    58    39    40    1
    59    40    41    1
    60    41    42    1
    61    45   100    1
    62    47   101    1
    63    47   102    1
    64    47   103    1
    65    48   104    1
    66    49   105    1
    67    49   106    1
    68    49   107    1
    69    50   108    1
    70    51    59    1
    71    52   109    1
    72    52   110    1
    73    52   111    1
    74    53    54    1
    75    54    55    2
    76    54    56    1
    77    56   112    1
    78    56   113    1
    79    56   114    1
    80    57   115    1
    81    57   116    1
    82    57   117    1
    83    58   118    1
    84    58   119    1
    85    58   120    1
    86    59   121    1
    87    59   122    1
    88    59   123    1
    89    60    61    2
    90     1    47    1
    91     1    62    1
    92     2    63    1
    93     3    64    1
    94     4    65    1
    95     5     6    1
    96     7     8    2
    97     9    78    1
    98    15    79    1
    99    18    80    1
   100    18    81    1
   101    19    82    1
   102    19    83    1
   103    20    23    1
   104    21    84    1
   105    21    85    1
   106    22    86    1
   107    22    87    1
   108    27    45    1
   109    28    34    1
   110    32    58    1
   111    33    46    2
   112    36    51    1
   113    36    66    1
   114    37    52    1
   115    37    67    1
   116    38    53    1
   117    38    68    1
   118    42    48    1
   119    42    72    1
   120    43    44    2
   121    60    73    1
   122    61    74    1
   123    39    69    1
   124    39    57    1
   125    40    70    1
   126    40    50    1
   127    41    71    1
   128    41    49    1
