@<TRIPOS>MOLECULE
*****
 123 128 0 0 0
SMALL
GASTEIGER

@<TRIPOS>ATOM
     1 C         4.968773   1.126148   2.013664 C.3        1 UNL1     0.0009
     2 C         6.793948   0.853655   1.836128 C.2        1 UNL1     -0.0787
     3 C         8.011993   0.193118   2.255777 C.2        1 UNL1     -0.0649
     4 C         9.544546   0.285082   1.542206 C.2        1 UNL1     -0.0542
     5 C         10.808383   -0.343467   1.420875 C.2        1 UNL1     0.0115
     6 C         11.710586   -1.471906   1.991819 C.3        1 UNL1     -0.0348
     7 C         11.761978   0.059768   0.194071 C.2        1 UNL1     0.2441
     8 O         12.721123   0.809352   0.315275 O.2        1 UNL1     -0.2702
     9 N         11.580538   -0.70743   -0.969818 N.am        1 UNL1     -0.2772
     10 C         10.601031   -0.153915   -1.761972 C.2        1 UNL1     0.1049
     11 C         9.355485   -0.458617   -1.445754 C.2        1 UNL1     0.0801
     12 C         9.855626   2.008465   -2.774798 C.ar        1 UNL1     0.0753
     13 C         8.562965   1.728849   -2.227575 C.ar        1 UNL1     0.0305
     14 C         8.239458   0.422794   -1.657827 C.2        1 UNL1     0.0924
     15 N         8.882009   -1.391366   -0.60176 N.pl3        1 UNL1     -0.3170
     16 C         7.451226   -1.431055   -0.748525 C.3        1 UNL1     0.1275
     17 N         7.079158   -0.040383   -1.201649 N.2        1 UNL1     -0.2557
     18 C         7.142559   -2.35564   -1.922224 C.3        1 UNL1     0.0016
     19 C         7.784258   -3.70833   -1.657571 C.3        1 UNL1     0.0026
     20 N         7.249441   -4.244405   -0.413537 N.3        1 UNL1     -0.3018
     21 C         7.443335   -3.395207   0.763594 C.3        1 UNL1     0.0026
     22 C         6.787032   -2.043402   0.477617 C.3        1 UNL1     0.0016
     23 C         7.563699   -5.646308   -0.222346 C.3        1 UNL1     0.0012
     24 C         8.931677   -5.803434   0.46008 C.3        1 UNL1     -0.0339
     25 C         8.780396   -6.111136   1.958909 C.3        1 UNL1     -0.0615
     26 C         9.7484   -6.869229   -0.249727 C.3        1 UNL1     -0.0615
     27 C         10.11957   3.212206   -3.423997 C.ar        1 UNL1     0.1347
     28 C         9.163543   4.192507   -3.621667 C.ar        1 UNL1     0.0342
     29 C         7.91186   3.916102   -3.031706 C.ar        1 UNL1     0.1435
     30 C         7.643402   2.730165   -2.347087 C.ar        1 UNL1     0.0774
     31 O         6.846044   4.722238   -3.229662 O.3        1 UNL1     -0.4436
     32 C         5.709715   3.90748   -2.904395 C.3        1 UNL1     0.3143
     33 C         6.245406   2.830111   -1.98324 C.2        1 UNL1     0.2504
     34 C         9.301232   5.389947   -4.520154 C.3        1 UNL1     -0.0327
     35 O         4.815684   4.713965   -2.127515 O.2        1 UNL1     -0.4528
     36 C         1.327903   3.41512   -2.873485 C.3        1 UNL1     0.0854
     37 C         0.748508   1.958703   -2.698348 C.3        1 UNL1     0.0236
     38 C         -0.575234   1.861648   -1.79833 C.3        1 UNL1     0.1131
     39 C         -0.604577   2.53959   -0.369413 C.3        1 UNL1     0.0200
     40 C         0.698038   2.393051   0.662167 C.3        1 UNL1     0.0661
     41 C         1.482154   0.946052   1.073221 C.3        1 UNL1     0.0091
     42 C         3.240377   0.620111   1.482876 C.3        1 UNL1     0.0661
     43 C         10.880705   0.937551   -2.706873 C.2        1 UNL1     0.2131
     44 O         11.846815   0.882754   -3.446039 O.2        1 UNL1     -0.2851
     45 O         11.416302   3.424287   -3.887619 O.3        1 UNL1     -0.5056
     46 O         5.656208   2.209748   -1.12659 O.2        1 UNL1     -0.2836
     47 C         4.672287   1.992352   3.267365 C.3        1 UNL1     -0.0566
     48 O         2.928548   -0.188033   2.686529 O.3        1 UNL1     -0.3909
     49 C         1.045357   -0.13606   0.111069 C.3        1 UNL1     -0.0577
     50 O         1.65212   3.405305   0.411579 O.3        1 UNL1     -0.3910
     51 O         0.72431   4.417011   -2.086514 O.3        1 UNL1     -0.3753
     52 C         1.883645   0.885802   -2.625571 C.3        1 UNL1     -0.0564
     53 O         -1.297593   0.552944   -1.931805 O.3        1 UNL1     -0.4608
     54 C         -1.928947   -0.114111   -0.914771 C.2        1 UNL1     0.3042
     55 O         -3.025766   -0.670242   -0.954065 O.2        1 UNL1     -0.2512
     56 C         -1.119495   -0.189701   0.348474 C.3        1 UNL1     0.0332
     57 C         -1.264363   3.987061   -0.535803 C.3        1 UNL1     -0.0567
     58 C         5.249989   3.250124   -4.226539 C.3        1 UNL1     0.0210
     59 C         -0.102057   5.329338   -2.808069 C.3        1 UNL1     0.0372
     60 C         2.797226   3.536107   -2.669496 C.2        1 UNL1     -0.0208
     61 C         3.504096   4.440344   -1.990206 C.2        1 UNL1     0.0882
     62 H         5.007831   1.813826   1.160268 H        1 UNL1     0.0365
     63 H         7.03485   1.585986   1.062742 H        1 UNL1     0.0576
     64 H         8.005399   -0.589769   3.017454 H        1 UNL1     0.0615
     65 H         9.465346   1.138906   0.86383 H        1 UNL1     0.0622
     66 H         1.149435   3.657919   -3.930483 H        1 UNL1     0.0645
     67 H         0.353605   1.70533   -3.697555 H        1 UNL1     0.0362
     68 H         -1.263018   2.457081   -2.417954 H        1 UNL1     0.0741
     69 H         -1.412043   2.105678   0.205154 H        1 UNL1     0.0359
     70 H         0.221178   2.692205   1.615148 H        1 UNL1     0.0600
     71 H         0.913792   0.669906   1.982982 H        1 UNL1     0.0348
     72 H         3.09128   1.700424   1.624334 H        1 UNL1     0.0602
     73 H         3.294273   2.82197   -3.277938 H        1 UNL1     0.0628
     74 H         3.074466   5.167397   -1.300242 H        1 UNL1     0.1022
     75 H         11.249229   -1.918074   2.905666 H        1 UNL1     0.0279
     76 H         11.86003   -2.341855   1.356269 H        1 UNL1     0.0279
     77 H         12.66259   -1.093639   2.392199 H        1 UNL1     0.0279
     78 H         11.27653   -1.64544   -0.717241 H        1 UNL1     0.1553
     79 H         9.417897   -2.177628   -0.283093 H        1 UNL1     0.1484
     80 H         6.054873   -2.442953   -2.032139 H        1 UNL1     0.0317
     81 H         7.519744   -1.935706   -2.86086 H        1 UNL1     0.0317
     82 H         8.881289   -3.637975   -1.619015 H        1 UNL1     0.0428
     83 H         7.553306   -4.351403   -2.507376 H        1 UNL1     0.0428
     84 H         6.963474   -3.782569   1.667749 H        1 UNL1     0.0428
     85 H         8.504025   -3.313612   1.03854 H        1 UNL1     0.0428
     86 H         6.831173   -1.498677   1.402449 H        1 UNL1     0.0317
     87 H         5.710868   -2.176749   0.31273 H        1 UNL1     0.0317
     88 H         6.795708   -6.08264   0.42965 H        1 UNL1     0.0429
     89 H         7.529447   -6.195749   -1.171933 H        1 UNL1     0.0429
     90 H         9.497029   -4.870386   0.35049 H        1 UNL1     0.0308
     91 H         9.752716   -6.285947   2.429163 H        1 UNL1     0.0233
     92 H         8.275938   -5.2896   2.472922 H        1 UNL1     0.0233
     93 H         8.172878   -7.005618   2.142372 H        1 UNL1     0.0233
     94 H         10.335061   -7.441774   0.476811 H        1 UNL1     0.0233
     95 H         9.08368   -7.564914   -0.769468 H        1 UNL1     0.0233
     96 H         10.435204   -6.427237   -0.976991 H        1 UNL1     0.0233
     97 H         10.007949   6.114901   -4.127441 H        1 UNL1     0.0280
     98 H         9.671822   5.118682   -5.517316 H        1 UNL1     0.0280
     99 H         8.322256   5.885023   -4.627866 H        1 UNL1     0.0280
     100 H         11.57936   3.100828   -4.756187 H        1 UNL1     0.2922
     101 H         3.618282   2.268953   3.282261 H        1 UNL1     0.0236
     102 H         5.32433   2.86105   3.352144 H        1 UNL1     0.0236
     103 H         4.827777   1.431771   4.204256 H        1 UNL1     0.0236
     104 H         2.165156   0.228796   3.132013 H        1 UNL1     0.2098
     105 H         1.496388   -0.068407   -0.875747 H        1 UNL1     0.0234
     106 H         1.1327   -1.151409   0.497546 H        1 UNL1     0.0234
     107 H         -0.0   0.0   0.0 H        1 UNL1     0.0234
     108 H         2.476134   3.146563   0.867454 H        1 UNL1     0.2098
     109 H         2.493004   0.862256   -3.539813 H        1 UNL1     0.0234
     110 H         2.535515   1.007368   -1.753773 H        1 UNL1     0.0234
     111 H         1.475998   -0.127754   -2.513882 H        1 UNL1     0.0234
     112 H         -1.345185   0.669712   0.98708 H        1 UNL1     0.0342
     113 H         -1.279321   -1.125514   0.88191 H        1 UNL1     0.0342
     114 H         -0.055843   -0.138192   0.078004 H        1 UNL1     0.0342
     115 H         -1.84029   4.278044   0.353481 H        1 UNL1     0.0234
     116 H         -0.54413   4.782953   -0.735474 H        1 UNL1     0.0234
     117 H         -2.042933   4.028485   -1.316863 H        1 UNL1     0.0234
     118 H         5.35466   3.9333   -5.087539 H        1 UNL1     0.0309
     119 H         5.773927   2.314433   -4.446021 H        1 UNL1     0.0309
     120 H         4.181905   3.006603   -4.225745 H        1 UNL1     0.0309
     121 H         -1.052697   5.401248   -2.280367 H        1 UNL1     0.0524
     122 H         0.331366   6.34243   -2.850808 H        1 UNL1     0.0524
     123 H         -0.261854   4.971184   -3.821127 H        1 UNL1     0.0524
@<TRIPOS>BOND
     1     1     2    1
     2     1    42    1
     3     2     3    2
     4     3     4    1
     5     4     5    2
     6     5     7    1
     7     6    75    1
     8     6    76    1
     9     6    77    1
    10     7     9   am
    11     9    10    1
    12    10    11    2
    13    10    43    1
    14    11    14    1
    15    11    15    1
    16    12    13   ar
    17    12    27   ar
    18    12    43    1
    19    13    14    1
    20    13    30   ar
    21    14    17    2
    22    15    16    1
    23    16    17    1
    24    16    18    1
    25    16    22    1
    26    18    19    1
    27    19    20    1
    28    20    21    1
    29    21    22    1
    30    23    24    1
    31    23    88    1
    32    23    89    1
    33    24    25    1
    34    24    26    1
    35    24    90    1
    36    25    91    1
    37    25    92    1
    38    25    93    1
    39    26    94    1
    40    26    95    1
    41    26    96    1
    42    27    28   ar
    43    28    29   ar
    44    29    30   ar
    45    29    31    1
    46    30    33    1
    47    31    32    1
    48    32    33    1
    49    32    35    1
    50    34    97    1
    51    34    98    1
    52    34    99    1
    53    35    61    1
    54    36    37    1
    55    36    60    1
    56    37    38    1
    57    38    39    1
    58    39    40    1
    59    40    41    1
    60    41    42    1
    61    45   100    1
    62    47   101    1
    63    47   102    1
    64    47   103    1
    65    48   104    1
    66    49   105    1
    67    49   106    1
    68    49   107    1
    69    50   108    1
    70    51    59    1
    71    52   109    1
    72    52   110    1
    73    52   111    1
    74    53    54    1
    75    54    55    2
    76    54    56    1
    77    56   112    1
    78    56   113    1
    79    56   114    1
    80    57   115    1
    81    57   116    1
    82    57   117    1
    83    58   118    1
    84    58   119    1
    85    58   120    1
    86    59   121    1
    87    59   122    1
    88    59   123    1
    89    60    61    2
    90     1    47    1
    91     1    62    1
    92     2    63    1
    93     3    64    1
    94     4    65    1
    95     5     6    1
    96     7     8    2
    97     9    78    1
    98    15    79    1
    99    18    80    1
   100    18    81    1
   101    19    82    1
   102    19    83    1
   103    20    23    1
   104    21    84    1
   105    21    85    1
   106    22    86    1
   107    22    87    1
   108    27    45    1
   109    28    34    1
   110    32    58    1
   111    33    46    2
   112    36    51    1
   113    36    66    1
   114    37    52    1
   115    37    67    1
   116    38    53    1
   117    38    68    1
   118    42    48    1
   119    42    72    1
   120    43    44    2
   121    60    73    1
   122    61    74    1
   123    39    69    1
   124    39    57    1
   125    40    70    1
   126    40    50    1
   127    41    71    1
   128    41    49    1
