@<TRIPOS>MOLECULE
*****
 123 128 0 0 0
SMALL
GASTEIGER

@<TRIPOS>ATOM
     1 C         -1.631447   -2.910993   2.427513 C.3        1 UNL1     0.0009
     2 C         -1.480281   -3.073583   4.268097 C.2        1 UNL1     -0.0787
     3 C         -0.823545   -3.635185   5.429711 C.2        1 UNL1     -0.0649
     4 C         -1.100759   -3.270615   7.059618 C.2        1 UNL1     -0.0542
     5 C         -0.561854   -3.322204   8.368816 C.2        1 UNL1     0.0115
     6 C         0.59562   -3.899204   9.229425 C.3        1 UNL1     -0.0348
     7 C         -1.197293   -2.386435   9.507913 C.2        1 UNL1     0.2441
     8 O         -1.965393   -2.806569   10.362334 O.2        1 UNL1     -0.2702
     9 N         -0.612131   -1.11303   9.618266 N.am        1 UNL1     -0.2772
     10 C         -1.232901   -0.224229   8.770917 C.2        1 UNL1     0.1049
     11 C         -0.821668   -0.232417   7.51591 C.2        1 UNL1     0.0801
     12 C         -3.486858   0.601631   8.06738 C.ar        1 UNL1     0.0753
     13 C         -3.062177   0.375788   6.719326 C.ar        1 UNL1     0.0305
     14 C         -1.669129   0.07588   6.396026 C.2        1 UNL1     0.0924
     15 N         0.253056   -0.82034   6.962879 N.pl3        1 UNL1     -0.3170
     16 C         0.340065   -0.379939   5.595864 C.3        1 UNL1     0.1275
     17 N         -1.084014   -0.062756   5.209709 N.2        1 UNL1     -0.2557
     18 C         1.085268   0.951367   5.596273 C.3        1 UNL1     0.0016
     19 C         2.429294   0.756169   6.279708 C.3        1 UNL1     0.0026
     20 N         3.177797   -0.263045   5.55723 N.3        1 UNL1     -0.3018
     21 C         2.513174   -1.563481   5.449948 C.3        1 UNL1     0.0026
     22 C         1.167431   -1.344519   4.75646 C.3        1 UNL1     0.0016
     23 C         4.575136   -0.313131   5.938777 C.3        1 UNL1     0.0012
     24 C         5.31726   0.932918   5.430476 C.3        1 UNL1     -0.0339
     25 C         4.450152   2.195963   5.560469 C.3        1 UNL1     -0.0615
     26 C         6.640074   1.085383   6.161022 C.3        1 UNL1     -0.0615
     27 C         -4.788357   1.005216   8.356065 C.ar        1 UNL1     0.1347
     28 C         -5.739048   1.25278   7.381925 C.ar        1 UNL1     0.0342
     29 C         -5.312923   0.976708   6.065352 C.ar        1 UNL1     0.1435
     30 C         -4.023267   0.537211   5.763939 C.ar        1 UNL1     0.0774
     31 O         -6.086401   1.271769   4.997796 O.3        1 UNL1     -0.4436
     32 C         -5.175917   1.30501   3.888389 C.3        1 UNL1     0.3143
     33 C         -3.99635   0.456534   4.318417 C.2        1 UNL1     0.2504
     34 C         -7.066809   1.924512   7.596234 C.3        1 UNL1     -0.0327
     35 O         -5.806839   0.62078   2.798885 O.2        1 UNL1     -0.4528
     36 C         -4.468991   2.241237   -0.362187 C.3        1 UNL1     0.0854
     37 C         -2.976236   2.397217   -0.846826 C.3        1 UNL1     0.0236
     38 C         -2.675356   1.810095   -2.308504 C.3        1 UNL1     0.1131
     39 C         -3.12089   0.335816   -2.669437 C.3        1 UNL1     0.0200
     40 C         -2.88043   -0.908816   -1.585228 C.3        1 UNL1     0.0661
     41 C         -1.427653   -1.261515   -0.783573 C.3        1 UNL1     0.0091
     42 C         -1.129263   -1.971493   0.881449 C.3        1 UNL1     0.0661
     43 C         -2.470322   0.478485   9.141506 C.2        1 UNL1     0.2131
     44 O         -2.578744   1.00456   10.234314 O.2        1 UNL1     -0.2851
     45 O         -5.133624   1.158865   9.697191 O.3        1 UNL1     -0.5056
     46 O         -3.222158   -0.164399   3.624932 O.2        1 UNL1     -0.2836
     47 C         -2.276747   -4.187714   1.82456 C.3        1 UNL1     -0.0566
     48 O         -0.129607   -2.958516   0.406484 O.3        1 UNL1     -0.3909
     49 C         -0.487851   -0.086483   -0.937092 C.3        1 UNL1     -0.0577
     50 O         -3.965174   -1.005192   -0.684249 O.3        1 UNL1     -0.3910
     51 O         -5.305479   1.460048   -1.185268 O.3        1 UNL1     -0.3753
     52 C         -1.96242   2.247145   0.334108 C.3        1 UNL1     -0.0564
     53 O         -1.369205   2.273193   -2.884556 O.3        1 UNL1     -0.4608
     54 C         -0.692028   1.665404   -3.909228 C.2        1 UNL1     0.3042
     55 O         0.095115   0.72317   -3.828981 O.2        1 UNL1     -0.2512
     56 C         -1.030604   2.217433   -5.264715 C.3        1 UNL1     0.0332
     57 C         -4.542277   0.42607   -3.397234 C.3        1 UNL1     -0.0567
     58 C         -4.709966   2.772976   3.748765 C.3        1 UNL1     0.0210
     59 C         -6.166225   0.562696   -0.485451 C.3        1 UNL1     0.0372
     60 C         -4.629229   1.725974   1.024893 C.2        1 UNL1     -0.0208
     61 C         -5.450794   0.794948   1.511684 C.2        1 UNL1     0.0882
     62 H         -2.444387   -2.190272   2.577182 H        1 UNL1     0.0365
     63 H         -2.334819   -2.477978   4.595956 H        1 UNL1     0.0576
     64 H         0.067485   -4.26018   5.337219 H        1 UNL1     0.0615
     65 H         -2.044606   -2.718837   7.046369 H        1 UNL1     0.0622
     66 H         -4.863875   3.266891   -0.350118 H        1 UNL1     0.0645
     67 H         -2.861919   3.481721   -1.01812 H        1 UNL1     0.0362
     68 H         -3.325094   2.466181   -2.907597 H        1 UNL1     0.0741
     69 H         -2.563685   0.006202   -3.536204 H        1 UNL1     0.0359
     70 H         -3.004052   -1.776772   -2.260824 H        1 UNL1     0.0600
     71 H         -0.985858   -1.987093   -1.494424 H        1 UNL1     0.0348
     72 H         -2.165807   -2.231619   0.62217 H        1 UNL1     0.0602
     73 H         -4.043664   2.315133   1.686144 H        1 UNL1     0.0628
     74 H         -6.039771   0.111211   0.899436 H        1 UNL1     0.1022
     75 H         0.734166   -4.987515   9.021055 H        1 UNL1     0.0279
     76 H         1.588102   -3.496301   9.040434 H        1 UNL1     0.0279
     77 H         0.360949   -3.912343   10.303882 H        1 UNL1     0.0279
     78 H         0.367573   -1.162087   9.346514 H        1 UNL1     0.1553
     79 H         1.051836   -1.126754   7.487278 H        1 UNL1     0.1484
     80 H         1.208048   1.292682   4.561287 H        1 UNL1     0.0317
     81 H         0.506562   1.723562   6.114408 H        1 UNL1     0.0317
     82 H         2.311702   0.484464   7.339076 H        1 UNL1     0.0428
     83 H         2.943207   1.717866   6.270607 H        1 UNL1     0.0428
     84 H         3.059458   -2.285915   4.835558 H        1 UNL1     0.0428
     85 H         2.422995   -2.058292   6.426855 H        1 UNL1     0.0428
     86 H         0.771425   -2.326687   4.576144 H        1 UNL1     0.0317
     87 H         1.326525   -0.945775   3.747109 H        1 UNL1     0.0317
     88 H         4.629431   -0.329254   7.035174 H        1 UNL1     0.0429
     89 H         5.053864   -1.233193   5.579501 H        1 UNL1     0.0429
     90 H         5.573227   0.792345   4.373625 H        1 UNL1     0.0308
     91 H         4.95158   3.068552   5.131213 H        1 UNL1     0.0233
     92 H         3.486804   2.055893   5.064536 H        1 UNL1     0.0233
     93 H         4.22349   2.441228   6.605124 H        1 UNL1     0.0233
     94 H         7.15538   1.991356   5.824111 H        1 UNL1     0.0233
     95 H         6.464496   1.177603   7.236489 H        1 UNL1     0.0233
     96 H         7.295567   0.228379   5.982581 H        1 UNL1     0.0233
     97 H         -7.1812   2.285608   8.613954 H        1 UNL1     0.0280
     98 H         -7.19564   2.802327   6.949628 H        1 UNL1     0.0280
     99 H         -7.879809   1.20928   7.389907 H        1 UNL1     0.0280
     100 H         -4.898427   0.432749   10.247701 H        1 UNL1     0.2922
     101 H         -3.31339   -3.984375   1.556831 H        1 UNL1     0.0236
     102 H         -2.184736   -5.060383   2.47029 H        1 UNL1     0.0236
     103 H         -1.796698   -4.486799   0.877832 H        1 UNL1     0.0236
     104 H         -0.612561   -3.770344   0.156163 H        1 UNL1     0.2098
     105 H         0.276197   -0.219048   -1.698977 H        1 UNL1     0.0234
     106 H         -0.980752   0.877796   -1.060143 H        1 UNL1     0.0234
     107 H         0.0   0.0   0.0 H        1 UNL1     0.0234
     108 H         -4.029583   -0.150948   -0.215327 H        1 UNL1     0.2098
     109 H         -1.756622   3.205994   0.830061 H        1 UNL1     0.0234
     110 H         -2.276517   1.508897   1.079813 H        1 UNL1     0.0234
     111 H         -0.988551   1.877045   -0.013098 H        1 UNL1     0.0234
     112 H         -0.474073   1.676851   -6.03633 H        1 UNL1     0.0342
     113 H         -2.101025   2.189022   -5.462793 H        1 UNL1     0.0342
     114 H         -0.714153   3.269129   -5.295691 H        1 UNL1     0.0342
     115 H         -4.525745   1.131313   -4.239581 H        1 UNL1     0.0234
     116 H         -4.90828   -0.530047   -3.776616 H        1 UNL1     0.0234
     117 H         -5.332674   0.866935   -2.765687 H        1 UNL1     0.0234
     118 H         -4.382825   3.00813   2.720812 H        1 UNL1     0.0309
     119 H         -5.471444   3.49656   4.056628 H        1 UNL1     0.0309
     120 H         -3.822348   2.991486   4.352498 H        1 UNL1     0.0309
     121 H         -5.731787   -0.434049   -0.557006 H        1 UNL1     0.0524
     122 H         -6.249474   0.81245   0.585404 H        1 UNL1     0.0524
     123 H         -7.158371   0.57179   -0.927782 H        1 UNL1     0.0524
@<TRIPOS>BOND
     1     1     2    1
     2     1    42    1
     3     2     3    2
     4     3     4    1
     5     4     5    2
     6     5     7    1
     7     6    75    1
     8     6    76    1
     9     6    77    1
    10     7     9   am
    11     9    10    1
    12    10    11    2
    13    10    43    1
    14    11    14    1
    15    11    15    1
    16    12    13   ar
    17    12    27   ar
    18    12    43    1
    19    13    14    1
    20    13    30   ar
    21    14    17    2
    22    15    16    1
    23    16    17    1
    24    16    18    1
    25    16    22    1
    26    18    19    1
    27    19    20    1
    28    20    21    1
    29    21    22    1
    30    23    24    1
    31    23    88    1
    32    23    89    1
    33    24    25    1
    34    24    26    1
    35    24    90    1
    36    25    91    1
    37    25    92    1
    38    25    93    1
    39    26    94    1
    40    26    95    1
    41    26    96    1
    42    27    28   ar
    43    28    29   ar
    44    29    30   ar
    45    29    31    1
    46    30    33    1
    47    31    32    1
    48    32    33    1
    49    32    35    1
    50    34    97    1
    51    34    98    1
    52    34    99    1
    53    35    61    1
    54    36    37    1
    55    36    60    1
    56    37    38    1
    57    38    39    1
    58    39    40    1
    59    40    41    1
    60    41    42    1
    61    45   100    1
    62    47   101    1
    63    47   102    1
    64    47   103    1
    65    48   104    1
    66    49   105    1
    67    49   106    1
    68    49   107    1
    69    50   108    1
    70    51    59    1
    71    52   109    1
    72    52   110    1
    73    52   111    1
    74    53    54    1
    75    54    55    2
    76    54    56    1
    77    56   112    1
    78    56   113    1
    79    56   114    1
    80    57   115    1
    81    57   116    1
    82    57   117    1
    83    58   118    1
    84    58   119    1
    85    58   120    1
    86    59   121    1
    87    59   122    1
    88    59   123    1
    89    60    61    2
    90     1    47    1
    91     1    62    1
    92     2    63    1
    93     3    64    1
    94     4    65    1
    95     5     6    1
    96     7     8    2
    97     9    78    1
    98    15    79    1
    99    18    80    1
   100    18    81    1
   101    19    82    1
   102    19    83    1
   103    20    23    1
   104    21    84    1
   105    21    85    1
   106    22    86    1
   107    22    87    1
   108    27    45    1
   109    28    34    1
   110    32    58    1
   111    33    46    2
   112    36    51    1
   113    36    66    1
   114    37    52    1
   115    37    67    1
   116    38    53    1
   117    38    68    1
   118    42    48    1
   119    42    72    1
   120    43    44    2
   121    60    73    1
   122    61    74    1
   123    39    69    1
   124    39    57    1
   125    40    70    1
   126    40    50    1
   127    41    71    1
   128    41    49    1
