@<TRIPOS>MOLECULE
*****
 123 128 0 0 0
SMALL
GASTEIGER

@<TRIPOS>ATOM
     1 C         2.962989   -3.103575   -3.037131 C.3        1 UNL1     0.0009
     2 C         2.875822   -4.031809   -4.639573 C.2        1 UNL1     -0.0787
     3 C         2.8656   -5.283415   -5.367188 C.2        1 UNL1     -0.0649
     4 C         2.61598   -5.521457   -7.024711 C.2        1 UNL1     -0.0542
     5 C         2.250876   -6.460391   -8.020793 C.2        1 UNL1     0.0115
     6 C         1.982899   -7.966745   -8.289883 C.3        1 UNL1     -0.0348
     7 C         1.782193   -5.924098   -9.459443 C.2        1 UNL1     0.2441
     8 O         2.509022   -5.93651   -10.443359 O.2        1 UNL1     -0.2702
     9 N         0.402352   -5.682526   -9.577067 N.am        1 UNL1     -0.2772
     10 C         0.104327   -4.398407   -9.182681 C.2        1 UNL1     0.1049
     11 C         -0.039346   -4.20698   -7.88386 C.2        1 UNL1     0.0801
     12 C         0.798174   -2.015628   -9.496166 C.ar        1 UNL1     0.0753
     13 C         0.82954   -1.918904   -8.068486 C.ar        1 UNL1     0.0305
     14 C         0.284112   -2.974399   -7.217904 C.2        1 UNL1     0.0924
     15 N         -0.149828   -5.100632   -6.886009 N.pl3        1 UNL1     -0.3170
     16 C         -0.459995   -4.377844   -5.681174 C.3        1 UNL1     0.1275
     17 N         0.139932   -3.00979   -5.896206 N.2        1 UNL1     -0.2557
     18 C         -1.972114   -4.17715   -5.650863 C.3        1 UNL1     0.0016
     19 C         -2.645331   -5.536102   -5.758648 C.3        1 UNL1     0.0026
     20 N         -2.204525   -6.366057   -4.646041 N.3        1 UNL1     -0.3018
     21 C         -0.756736   -6.566021   -4.55499 C.3        1 UNL1     0.0026
     22 C         -0.10105   -5.188561   -4.442851 C.3        1 UNL1     0.0016
     23 C         -3.00485   -7.563501   -4.484021 C.3        1 UNL1     0.0012
     24 C         -3.317397   -7.805597   -2.998941 C.3        1 UNL1     -0.0339
     25 C         -3.395766   -6.483485   -2.217958 C.3        1 UNL1     -0.0615
     26 C         -4.596331   -8.613081   -2.860822 C.3        1 UNL1     -0.0615
     27 C         1.208787   -0.95525   -10.3006 C.ar        1 UNL1     0.1347
     28 C         1.631189   0.261064   -9.794432 C.ar        1 UNL1     0.0342
     29 C         1.700153   0.316222   -8.386112 C.ar        1 UNL1     0.1435
     30 C         1.326423   -0.750566   -7.567877 C.ar        1 UNL1     0.0774
     31 O         1.987526   1.466796   -7.739117 O.3        1 UNL1     -0.4436
     32 C         1.509207   1.259884   -6.40148 C.3        1 UNL1     0.3143
     33 C         1.478806   -0.244211   -6.21986 C.2        1 UNL1     0.2504
     34 C         1.845234   1.519853   -10.587992 C.3        1 UNL1     -0.0327
     35 O         2.50816   1.767822   -5.508539 O.2        1 UNL1     -0.4528
     36 C         0.641412   2.947065   -2.421027 C.3        1 UNL1     0.0854
     37 C         -0.3198   2.137439   -1.468084 C.3        1 UNL1     0.0236
     38 C         0.084307   2.167369   0.083542 C.3        1 UNL1     0.1131
     39 C         1.563309   1.81072   0.516698 C.3        1 UNL1     0.0200
     40 C         2.35414   0.511393   -0.167973 C.3        1 UNL1     0.0661
     41 C         1.736735   -1.061584   -0.316847 C.3        1 UNL1     0.0091
     42 C         2.019585   -2.333756   -1.607961 C.3        1 UNL1     0.0661
     43 C         0.229564   -3.249903   -10.09241 C.2        1 UNL1     0.2131
     44 O         -0.210974   -3.308537   -11.226088 O.2        1 UNL1     -0.2851
     45 O         1.190128   -1.147486   -11.680504 O.3        1 UNL1     -0.5056
     46 O         1.580059   -0.881727   -5.195568 O.2        1 UNL1     -0.2836
     47 C         4.415545   -3.108549   -2.489373 C.3        1 UNL1     -0.0566
     48 O         2.270468   -3.4266   -0.637463 O.3        1 UNL1     -0.3909
     49 C         0.248778   -1.029298   -0.047707 C.3        1 UNL1     -0.0577
     50 O         2.999883   0.892399   -1.366127 O.3        1 UNL1     -0.3910
     51 O         1.819665   3.445419   -1.82875 O.3        1 UNL1     -0.3753
     52 C         -0.872611   0.847901   -2.158332 C.3        1 UNL1     -0.0564
     53 O         -1.010443   1.701564   0.99835 O.3        1 UNL1     -0.4608
     54 C         -0.833423   0.95965   2.136839 C.2        1 UNL1     0.3042
     55 O         0.13879   0.266003   2.432636 O.2        1 UNL1     -0.2512
     56 C         -1.960539   1.090591   3.121307 C.3        1 UNL1     0.0332
     57 C         2.369717   3.184939   0.656 C.3        1 UNL1     -0.0567
     58 C         0.058998   1.795873   -6.367708 C.3        1 UNL1     0.0210
     59 C         1.840246   4.858473   -1.63197 C.3        1 UNL1     0.0372
     60 C         1.053423   2.227892   -3.65723 C.2        1 UNL1     -0.0208
     61 C         2.25124   2.114131   -4.232588 C.2        1 UNL1     0.0882
     62 H         2.842139   -2.167191   -3.595066 H        1 UNL1     0.0365
     63 H         2.867854   -3.205429   -5.353369 H        1 UNL1     0.0576
     64 H         2.85939   -6.245812   -4.850602 H        1 UNL1     0.0615
     65 H         2.719755   -4.519704   -7.450392 H        1 UNL1     0.0622
     66 H         0.039937   3.803475   -2.756939 H        1 UNL1     0.0645
     67 H         -1.252445   2.727957   -1.463411 H        1 UNL1     0.0362
     68 H         -0.026036   3.244454   0.281617 H        1 UNL1     0.0741
     69 H         1.56733   1.562686   1.569728 H        1 UNL1     0.0359
     70 H         3.177025   0.383276   0.561072 H        1 UNL1     0.0600
     71 H         2.117543   -1.508401   0.62246 H        1 UNL1     0.0348
     72 H         2.852317   -1.621042   -1.696908 H        1 UNL1     0.0602
     73 H         0.188308   1.869068   -4.1573 H        1 UNL1     0.0628
     74 H         3.19145   2.403218   -3.761768 H        1 UNL1     0.1022
     75 H         2.517679   -8.599867   -7.541417 H        1 UNL1     0.0279
     76 H         0.953304   -8.302186   -8.187496 H        1 UNL1     0.0279
     77 H         2.432085   -8.317162   -9.230702 H        1 UNL1     0.0279
     78 H         -0.10916   -6.31683   -8.967075 H        1 UNL1     0.1553
     79 H         -0.404143   -6.061416   -7.024403 H        1 UNL1     0.1484
     80 H         -2.246468   -3.666997   -4.719606 H        1 UNL1     0.0317
     81 H         -2.297246   -3.528327   -6.471211 H        1 UNL1     0.0317
     82 H         -2.432103   -6.020762   -6.72278 H        1 UNL1     0.0428
     83 H         -3.722765   -5.369627   -5.736922 H        1 UNL1     0.0428
     84 H         -0.446181   -7.125365   -3.667014 H        1 UNL1     0.0428
     85 H         -0.372939   -7.162794   -5.393965 H        1 UNL1     0.0428
     86 H         0.937756   -5.377607   -4.245036 H        1 UNL1     0.0317
     87 H         -0.44488   -4.682909   -3.53225 H        1 UNL1     0.0317
     88 H         -3.951175   -7.41705   -5.02097 H        1 UNL1     0.0429
     89 H         -2.512364   -8.435974   -4.932376 H        1 UNL1     0.0429
     90 H         -2.524386   -8.423335   -2.561054 H        1 UNL1     0.0308
     91 H         -2.441619   -6.248641   -1.736756 H        1 UNL1     0.0233
     92 H         -3.676142   -5.660247   -2.879228 H        1 UNL1     0.0233
     93 H         -4.153477   -6.510824   -1.425518 H        1 UNL1     0.0233
     94 H         -4.837026   -8.76126   -1.802547 H        1 UNL1     0.0233
     95 H         -5.428981   -8.076285   -3.32397 H        1 UNL1     0.0233
     96 H         -4.501859   -9.594286   -3.334404 H        1 UNL1     0.0233
     97 H         1.225896   2.337106   -10.230574 H        1 UNL1     0.0280
     98 H         2.881127   1.877864   -10.524671 H        1 UNL1     0.0280
     99 H         1.597391   1.335652   -11.646169 H        1 UNL1     0.0280
     100 H         1.6247   -1.929365   -11.972795 H        1 UNL1     0.2922
     101 H         5.107597   -2.819198   -3.279939 H        1 UNL1     0.0236
     102 H         4.695803   -4.054074   -2.026317 H        1 UNL1     0.0236
     103 H         4.562568   -2.353953   -1.698701 H        1 UNL1     0.0236
     104 H         2.083605   -3.076643   0.255612 H        1 UNL1     0.2098
     105 H         -0.358537   -1.482598   -0.827129 H        1 UNL1     0.0234
     106 H         -0.045489   -1.410367   0.930107 H        1 UNL1     0.0234
     107 H         0.0   0.0   0.0 H        1 UNL1     0.0234
     108 H         3.889141   1.216868   -1.125901 H        1 UNL1     0.2098
     109 H         -1.457285   1.07691   -3.060231 H        1 UNL1     0.0234
     110 H         -0.090053   0.121801   -2.403538 H        1 UNL1     0.0234
     111 H         -1.551735   0.294046   -1.496531 H        1 UNL1     0.0234
     112 H         -1.915411   2.068175   3.610837 H        1 UNL1     0.0342
     113 H         -2.931835   0.93142   2.655376 H        1 UNL1     0.0342
     114 H         -1.832017   0.320559   3.894416 H        1 UNL1     0.0342
     115 H         3.115968   3.140741   1.461197 H        1 UNL1     0.0234
     116 H         2.887718   3.49005   -0.25539 H        1 UNL1     0.0234
     117 H         1.744175   4.030027   0.991359 H        1 UNL1     0.0234
     118 H         -0.028873   2.716318   -5.76433 H        1 UNL1     0.0309
     119 H         -0.354227   1.980204   -7.364437 H        1 UNL1     0.0309
     120 H         -0.633432   1.104192   -5.875543 H        1 UNL1     0.0309
     121 H         0.816318   5.219305   -1.725403 H        1 UNL1     0.0524
     122 H         2.19952   5.135729   -0.626938 H        1 UNL1     0.0524
     123 H         2.474053   5.332388   -2.376138 H        1 UNL1     0.0524
@<TRIPOS>BOND
     1     1     2    1
     2     1    42    1
     3     2     3    2
     4     3     4    1
     5     4     5    2
     6     5     7    1
     7     6    75    1
     8     6    76    1
     9     6    77    1
    10     7     9   am
    11     9    10    1
    12    10    11    2
    13    10    43    1
    14    11    14    1
    15    11    15    1
    16    12    13   ar
    17    12    27   ar
    18    12    43    1
    19    13    14    1
    20    13    30   ar
    21    14    17    2
    22    15    16    1
    23    16    17    1
    24    16    18    1
    25    16    22    1
    26    18    19    1
    27    19    20    1
    28    20    21    1
    29    21    22    1
    30    23    24    1
    31    23    88    1
    32    23    89    1
    33    24    25    1
    34    24    26    1
    35    24    90    1
    36    25    91    1
    37    25    92    1
    38    25    93    1
    39    26    94    1
    40    26    95    1
    41    26    96    1
    42    27    28   ar
    43    28    29   ar
    44    29    30   ar
    45    29    31    1
    46    30    33    1
    47    31    32    1
    48    32    33    1
    49    32    35    1
    50    34    97    1
    51    34    98    1
    52    34    99    1
    53    35    61    1
    54    36    37    1
    55    36    60    1
    56    37    38    1
    57    38    39    1
    58    39    40    1
    59    40    41    1
    60    41    42    1
    61    45   100    1
    62    47   101    1
    63    47   102    1
    64    47   103    1
    65    48   104    1
    66    49   105    1
    67    49   106    1
    68    49   107    1
    69    50   108    1
    70    51    59    1
    71    52   109    1
    72    52   110    1
    73    52   111    1
    74    53    54    1
    75    54    55    2
    76    54    56    1
    77    56   112    1
    78    56   113    1
    79    56   114    1
    80    57   115    1
    81    57   116    1
    82    57   117    1
    83    58   118    1
    84    58   119    1
    85    58   120    1
    86    59   121    1
    87    59   122    1
    88    59   123    1
    89    60    61    2
    90     1    47    1
    91     1    62    1
    92     2    63    1
    93     3    64    1
    94     4    65    1
    95     5     6    1
    96     7     8    2
    97     9    78    1
    98    15    79    1
    99    18    80    1
   100    18    81    1
   101    19    82    1
   102    19    83    1
   103    20    23    1
   104    21    84    1
   105    21    85    1
   106    22    86    1
   107    22    87    1
   108    27    45    1
   109    28    34    1
   110    32    58    1
   111    33    46    2
   112    36    51    1
   113    36    66    1
   114    37    52    1
   115    37    67    1
   116    38    53    1
   117    38    68    1
   118    42    48    1
   119    42    72    1
   120    43    44    2
   121    60    73    1
   122    61    74    1
   123    39    69    1
   124    39    57    1
   125    40    70    1
   126    40    50    1
   127    41    71    1
   128    41    49    1
