@<TRIPOS>MOLECULE
*****
 123 128 0 0 0
SMALL
GASTEIGER

@<TRIPOS>ATOM
     1 C         5.057106   2.051205   0.476267 C.3        1 UNL1     0.0009
     2 C         6.402461   3.017465   -0.356438 C.2        1 UNL1     -0.0787
     3 C         7.671892   3.061218   -1.051188 C.2        1 UNL1     -0.0649
     4 C         8.427214   4.403035   -1.755016 C.2        1 UNL1     -0.0542
     5 C         9.397304   4.82843   -2.695783 C.2        1 UNL1     0.0115
     6 C         10.551971   4.345298   -3.615921 C.3        1 UNL1     -0.0348
     7 C         9.356614   6.344448   -3.222113 C.2        1 UNL1     0.2441
     8 O         10.119304   7.210478   -2.816129 O.2        1 UNL1     -0.2702
     9 N         8.564374   6.550052   -4.365019 N.am        1 UNL1     -0.2772
     10 C         7.262159   6.811921   -4.00588 C.2        1 UNL1     0.1049
     11 C         6.505804   5.759659   -3.751136 C.2        1 UNL1     0.0801
     12 C         5.870648   8.228595   -2.484675 C.ar        1 UNL1     0.0753
     13 C         5.217199   7.019563   -2.084859 C.ar        1 UNL1     0.0305
     14 C         5.425121   5.763981   -2.802725 C.2        1 UNL1     0.0924
     15 N         6.732854   4.455693   -3.984903 N.pl3        1 UNL1     -0.3170
     16 C         5.52406   3.737532   -3.679428 C.3        1 UNL1     0.1275
     17 N         4.835159   4.583598   -2.636686 N.2        1 UNL1     -0.2557
     18 C         4.639448   3.792358   -4.921265 C.3        1 UNL1     0.0016
     19 C         5.420698   3.2338   -6.09993 C.3        1 UNL1     0.0026
     20 N         5.811701   1.86439   -5.795198 N.3        1 UNL1     -0.3018
     21 C         6.614852   1.702597   -4.581468 C.3        1 UNL1     0.0026
     22 C         5.809118   2.265975   -3.409592 C.3        1 UNL1     0.0016
     23 C         6.295227   1.144307   -6.956372 C.3        1 UNL1     0.0012
     24 C         5.141035   0.852114   -7.928083 C.3        1 UNL1     -0.0339
     25 C         5.131241   1.842917   -9.103783 C.3        1 UNL1     -0.0615
     26 C         5.217335   -0.586245   -8.409831 C.3        1 UNL1     -0.0615
     27 C         5.57591   9.444669   -1.872782 C.ar        1 UNL1     0.1347
     28 C         4.621111   9.582671   -0.881135 C.ar        1 UNL1     0.0342
     29 C         4.025791   8.37122   -0.469863 C.ar        1 UNL1     0.1435
     30 C         4.337242   7.140302   -1.048706 C.ar        1 UNL1     0.0774
     31 O         2.999579   8.35283   0.40852 O.3        1 UNL1     -0.4436
     32 C         2.377937   7.073652   0.213231 C.3        1 UNL1     0.3143
     33 C         3.456102   6.197492   -0.391845 C.2        1 UNL1     0.2504
     34 C         4.074677   10.881825   -0.357963 C.3        1 UNL1     -0.0327
     35 O         2.085599   6.539632   1.510387 O.2        1 UNL1     -0.4528
     36 C         -0.997127   4.368853   1.07152 C.3        1 UNL1     0.0854
     37 C         -1.21959   3.136462   0.112748 C.3        1 UNL1     0.0236
     38 C         -1.696134   1.790108   0.842119 C.3        1 UNL1     0.1131
     39 C         -0.898667   1.253181   2.098314 C.3        1 UNL1     0.0200
     40 C         0.769371   1.243912   2.099342 C.3        1 UNL1     0.0661
     41 C         1.76033   0.620096   0.871962 C.3        1 UNL1     0.0091
     42 C         3.418667   1.15228   0.295679 C.3        1 UNL1     0.0661
     43 C         6.807575   8.159886   -3.63346 C.2        1 UNL1     0.2131
     44 O         7.115499   9.124725   -4.309483 O.2        1 UNL1     -0.2851
     45 O         6.289699   10.566332   -2.289694 O.3        1 UNL1     -0.5056
     46 O         3.573541   4.994206   -0.327307 O.2        1 UNL1     -0.2836
     47 C         5.521332   1.580711   1.880942 C.3        1 UNL1     -0.0566
     48 O         3.982915   -0.219115   0.291609 O.3        1 UNL1     -0.3909
     49 C         0.91871   0.384955   -0.362493 C.3        1 UNL1     -0.0577
     50 O         1.277159   2.484895   2.546371 O.3        1 UNL1     -0.3910
     51 O         -1.072178   4.096318   2.452652 O.3        1 UNL1     -0.3753
     52 C         -0.193209   3.124244   -1.066803 C.3        1 UNL1     -0.0564
     53 O         -2.232997   0.753716   -0.101278 O.3        1 UNL1     -0.4608
     54 C         -2.320159   -0.588987   0.158493 C.2        1 UNL1     0.3042
     55 O         -1.669853   -1.494256   -0.362496 O.2        1 UNL1     -0.2512
     56 C         -3.29581   -0.928428   1.24918 C.3        1 UNL1     0.0332
     57 C         -1.641786   1.792536   3.407911 C.3        1 UNL1     -0.0567
     58 C         1.260832   7.285662   -0.834938 C.3        1 UNL1     0.0210
     59 C         -1.463034   5.204556   3.261914 C.3        1 UNL1     0.0372
     60 C         0.270128   5.117266   0.849929 C.2        1 UNL1     -0.0208
     61 C         1.164836   5.580173   1.723976 C.2        1 UNL1     0.0882
     62 H         4.504526   2.98654   0.626322 H        1 UNL1     0.0365
     63 H         6.05353   4.038522   -0.188632 H        1 UNL1     0.0576
     64 H         8.201674   2.148673   -1.333499 H        1 UNL1     0.0615
     65 H         7.875308   5.255294   -1.349386 H        1 UNL1     0.0622
     66 H         -1.807483   5.066404   0.816977 H        1 UNL1     0.0645
     67 H         -2.121823   3.404843   -0.463887 H        1 UNL1     0.0362
     68 H         -2.667118   2.127765   1.235436 H        1 UNL1     0.0741
     69 H         -1.141677   0.209173   2.244606 H        1 UNL1     0.0359
     70 H         0.95568   0.549511   2.940863 H        1 UNL1     0.0600
     71 H         1.897393   -0.415056   1.241599 H        1 UNL1     0.0348
     72 H         3.296552   1.577605   1.302407 H        1 UNL1     0.0602
     73 H         0.34682   5.378074   -0.176398 H        1 UNL1     0.0628
     74 H         1.190017   5.312578   2.780857 H        1 UNL1     0.1022
     75 H         10.671506   3.237214   -3.545951 H        1 UNL1     0.0279
     76 H         10.417838   4.499452   -4.684244 H        1 UNL1     0.0279
     77 H         11.539261   4.691696   -3.276852 H        1 UNL1     0.0279
     78 H         8.561241   5.70689   -4.935234 H        1 UNL1     0.1553
     79 H         7.416017   4.117539   -4.637492 H        1 UNL1     0.1484
     80 H         3.72641   3.213846   -4.735655 H        1 UNL1     0.0317
     81 H         4.322459   4.819611   -5.130836 H        1 UNL1     0.0317
     82 H         6.298647   3.85279   -6.336505 H        1 UNL1     0.0428
     83 H         4.772101   3.28393   -6.975064 H        1 UNL1     0.0428
     84 H         6.827353   0.658347   -4.332076 H        1 UNL1     0.0428
     85 H         7.608646   2.15974   -4.684954 H        1 UNL1     0.0428
     86 H         6.36573   2.011693   -2.526693 H        1 UNL1     0.0317
     87 H         4.875254   1.702835   -3.291833 H        1 UNL1     0.0317
     88 H         7.031565   1.777329   -7.468606 H        1 UNL1     0.0429
     89 H         6.811918   0.220454   -6.66603 H        1 UNL1     0.0429
     90 H         4.188944   0.93803   -7.391097 H        1 UNL1     0.0308
     91 H         6.080982   1.82525   -9.646721 H        1 UNL1     0.0233
     92 H         4.318018   1.612805   -9.796116 H        1 UNL1     0.0233
     93 H         4.970936   2.877428   -8.776788 H        1 UNL1     0.0233
     94 H         4.555452   -0.731964   -9.270361 H        1 UNL1     0.0233
     95 H         6.237677   -0.820827   -8.725799 H        1 UNL1     0.0233
     96 H         4.921413   -1.286587   -7.623753 H        1 UNL1     0.0233
     97 H         3.265989   10.72798   0.350263 H        1 UNL1     0.0280
     98 H         4.835482   11.465385   0.176725 H        1 UNL1     0.0280
     99 H         3.689529   11.484622   -1.196648 H        1 UNL1     0.0280
     100 H         5.755789   11.30279   -2.530924 H        1 UNL1     0.2922
     101 H         4.705156   1.061833   2.383213 H        1 UNL1     0.0236
     102 H         5.929637   2.386734   2.489708 H        1 UNL1     0.0236
     103 H         6.331987   0.835426   1.821087 H        1 UNL1     0.0236
     104 H         4.426824   -0.357967   1.151048 H        1 UNL1     0.2098
     105 H         0.70043   1.28297   -0.934973 H        1 UNL1     0.0234
     106 H         1.285585   -0.402668   -1.020506 H        1 UNL1     0.0234
     107 H         0.0   -0.0   0.0 H        1 UNL1     0.0234
     108 H         1.063535   3.148928   1.862856 H        1 UNL1     0.2098
     109 H         0.846645   3.088695   -0.713034 H        1 UNL1     0.0234
     110 H         -0.365912   2.310351   -1.77919 H        1 UNL1     0.0234
     111 H         -0.268296   4.033455   -1.678066 H        1 UNL1     0.0234
     112 H         -3.301512   -2.00918   1.420314 H        1 UNL1     0.0342
     113 H         -3.084284   -0.388053   2.170643 H        1 UNL1     0.0342
     114 H         -4.300347   -0.635159   0.914419 H        1 UNL1     0.0342
     115 H         -2.689837   1.465031   3.446874 H        1 UNL1     0.0234
     116 H         -1.168054   1.48946   4.343739 H        1 UNL1     0.0234
     117 H         -1.760532   2.889584   3.425986 H        1 UNL1     0.0234
     118 H         0.331537   7.669312   -0.378617 H        1 UNL1     0.0309
     119 H         1.559113   7.949756   -1.652379 H        1 UNL1     0.0309
     120 H         0.94298   6.348995   -1.305822 H        1 UNL1     0.0309
     121 H         -0.686842   5.964627   3.177214 H        1 UNL1     0.0524
     122 H         -2.409482   5.657325   2.922396 H        1 UNL1     0.0524
     123 H         -1.572168   4.894001   4.297162 H        1 UNL1     0.0524
@<TRIPOS>BOND
     1     1     2    1
     2     1    42    1
     3     2     3    2
     4     3     4    1
     5     4     5    2
     6     5     7    1
     7     6    75    1
     8     6    76    1
     9     6    77    1
    10     7     9   am
    11     9    10    1
    12    10    11    2
    13    10    43    1
    14    11    14    1
    15    11    15    1
    16    12    13   ar
    17    12    27   ar
    18    12    43    1
    19    13    14    1
    20    13    30   ar
    21    14    17    2
    22    15    16    1
    23    16    17    1
    24    16    18    1
    25    16    22    1
    26    18    19    1
    27    19    20    1
    28    20    21    1
    29    21    22    1
    30    23    24    1
    31    23    88    1
    32    23    89    1
    33    24    25    1
    34    24    26    1
    35    24    90    1
    36    25    91    1
    37    25    92    1
    38    25    93    1
    39    26    94    1
    40    26    95    1
    41    26    96    1
    42    27    28   ar
    43    28    29   ar
    44    29    30   ar
    45    29    31    1
    46    30    33    1
    47    31    32    1
    48    32    33    1
    49    32    35    1
    50    34    97    1
    51    34    98    1
    52    34    99    1
    53    35    61    1
    54    36    37    1
    55    36    60    1
    56    37    38    1
    57    38    39    1
    58    39    40    1
    59    40    41    1
    60    41    42    1
    61    45   100    1
    62    47   101    1
    63    47   102    1
    64    47   103    1
    65    48   104    1
    66    49   105    1
    67    49   106    1
    68    49   107    1
    69    50   108    1
    70    51    59    1
    71    52   109    1
    72    52   110    1
    73    52   111    1
    74    53    54    1
    75    54    55    2
    76    54    56    1
    77    56   112    1
    78    56   113    1
    79    56   114    1
    80    57   115    1
    81    57   116    1
    82    57   117    1
    83    58   118    1
    84    58   119    1
    85    58   120    1
    86    59   121    1
    87    59   122    1
    88    59   123    1
    89    60    61    2
    90     1    47    1
    91     1    62    1
    92     2    63    1
    93     3    64    1
    94     4    65    1
    95     5     6    1
    96     7     8    2
    97     9    78    1
    98    15    79    1
    99    18    80    1
   100    18    81    1
   101    19    82    1
   102    19    83    1
   103    20    23    1
   104    21    84    1
   105    21    85    1
   106    22    86    1
   107    22    87    1
   108    27    45    1
   109    28    34    1
   110    32    58    1
   111    33    46    2
   112    36    51    1
   113    36    66    1
   114    37    52    1
   115    37    67    1
   116    38    53    1
   117    38    68    1
   118    42    48    1
   119    42    72    1
   120    43    44    2
   121    60    73    1
   122    61    74    1
   123    39    69    1
   124    39    57    1
   125    40    70    1
   126    40    50    1
   127    41    71    1
   128    41    49    1
