@<TRIPOS>MOLECULE
*****
 123 128 0 0 0
SMALL
GASTEIGER

@<TRIPOS>ATOM
     1 C         5.159196   1.842325   -0.017055 C.3        1 UNL1     0.0009
     2 C         6.715927   2.053919   0.967248 C.2        1 UNL1     -0.0787
     3 C         7.611849   2.892116   1.735881 C.2        1 UNL1     -0.0649
     4 C         8.998689   2.425926   2.58776 C.2        1 UNL1     -0.0542
     5 C         9.906312   2.785507   3.614405 C.2        1 UNL1     0.0115
     6 C         10.342777   3.939504   4.558394 C.3        1 UNL1     -0.0348
     7 C         10.841465   1.650126   4.257357 C.2        1 UNL1     0.2441
     8 O         12.022468   1.517687   3.967154 O.2        1 UNL1     -0.2702
     9 N         10.285527   0.986775   5.36508 N.am        1 UNL1     -0.2772
     10 C         9.537781   -0.092297   4.953011 C.2        1 UNL1     0.1049
     11 C         8.300701   0.168571   4.571168 C.2        1 UNL1     0.0801
     12 C         9.611086   -2.106891   3.472007 C.ar        1 UNL1     0.0753
     13 C         8.358711   -1.663833   2.939216 C.ar        1 UNL1     0.0305
     14 C         7.600478   -0.582818   3.564949 C.2        1 UNL1     0.0924
     15 N         7.571067   1.288487   4.712413 N.pl3        1 UNL1     -0.3170
     16 C         6.229964   0.996564   4.280583 C.3        1 UNL1     0.1275
     17 N         6.391342   -0.113374   3.270772 N.2        1 UNL1     -0.2557
     18 C         5.495406   0.384106   5.469288 C.3        1 UNL1     0.0016
     19 C         5.581497   1.346967   6.642778 C.3        1 UNL1     0.0026
     20 N         4.98086   2.615001   6.252455 N.3        1 UNL1     -0.3018
     21 C         5.58106   3.251973   5.078404 C.3        1 UNL1     0.0026
     22 C         5.479526   2.269172   3.910634 C.3        1 UNL1     0.0016
     23 C         4.741332   3.495788   7.37828 C.3        1 UNL1     0.0012
     24 C         3.602034   2.952038   8.254689 C.3        1 UNL1     -0.0339
     25 C         2.77522   4.091446   8.8729 C.3        1 UNL1     -0.0615
     26 C         2.731815   2.003761   7.448296 C.3        1 UNL1     -0.0615
     27 C         10.268684   -3.215213   2.943512 C.ar        1 UNL1     0.1347
     28 C         9.754876   -3.981154   1.912306 C.ar        1 UNL1     0.0342
     29 C         8.54476   -3.497318   1.371301 C.ar        1 UNL1     0.1435
     30 C         7.892715   -2.36743   1.86669 C.ar        1 UNL1     0.0774
     31 O         7.862599   -4.193795   0.436109 O.3        1 UNL1     -0.4436
     32 C         6.528887   -3.665597   0.49172 C.3        1 UNL1     0.3143
     33 C         6.676191   -2.279569   1.086231 C.2        1 UNL1     0.2504
     34 C         10.27437   -5.318824   1.464128 C.3        1 UNL1     -0.0327
     35 O         6.081682   -3.494865   -0.858876 O.2        1 UNL1     -0.4528
     36 C         2.315986   -3.964616   -0.775446 C.3        1 UNL1     0.0854
     37 C         1.233274   -3.186288   0.06685 C.3        1 UNL1     0.0236
     38 C         0.050982   -2.529154   -0.794605 C.3        1 UNL1     0.1131
     39 C         0.399679   -1.620107   -2.041325 C.3        1 UNL1     0.0200
     40 C         1.620824   -0.487773   -1.946131 C.3        1 UNL1     0.0661
     41 C         1.812743   0.665712   -0.717208 C.3        1 UNL1     0.0091
     42 C         3.333675   1.403601   -0.004684 C.3        1 UNL1     0.0661
     43 C         10.142947   -1.400982   4.664096 C.2        1 UNL1     0.2131
     44 O         10.950634   -1.89149   5.432068 O.2        1 UNL1     -0.2851
     45 O         11.505233   -3.552755   3.489817 O.3        1 UNL1     -0.5056
     46 O         5.962328   -1.313872   0.932341 O.2        1 UNL1     -0.2836
     47 C         5.321641   2.47453   -1.425569 C.3        1 UNL1     -0.0566
     48 O         2.829219   2.796186   -0.077813 O.3        1 UNL1     -0.3909
     49 C         0.916175   0.296044   0.443397 C.3        1 UNL1     -0.0577
     50 O         2.869585   -1.069661   -2.261925 O.3        1 UNL1     -0.3910
     51 O         2.212061   -3.841867   -2.176004 O.3        1 UNL1     -0.3753
     52 C         1.865833   -2.46108   1.299284 C.3        1 UNL1     -0.0564
     53 O         -1.130185   -2.10788   0.029833 O.3        1 UNL1     -0.4608
     54 C         -1.888186   -0.986052   -0.181984 C.2        1 UNL1     0.3042
     55 O         -2.248495   -0.159163   0.654839 O.2        1 UNL1     -0.2512
     56 C         -2.242652   -0.763329   -1.624711 C.3        1 UNL1     0.0332
     57 C         0.34147   -2.545694   -3.344427 C.3        1 UNL1     -0.0567
     58 C         5.747412   -4.554777   1.486801 C.3        1 UNL1     0.0210
     59 C         1.749597   -5.012724   -2.847635 C.3        1 UNL1     0.0372
     60 C         3.728515   -3.657246   -0.421262 C.2        1 UNL1     -0.0208
     61 C         4.78185   -3.412574   -1.201881 C.2        1 UNL1     0.0882
     62 H         5.394119   0.7764   -0.123485 H        1 UNL1     0.0365
     63 H         7.159863   1.061807   0.861866 H        1 UNL1     0.0576
     64 H         7.3626   3.928495   1.974419 H        1 UNL1     0.0615
     65 H         9.203214   1.416624   2.220388 H        1 UNL1     0.0622
     66 H         2.162626   -5.020938   -0.51332 H        1 UNL1     0.0645
     67 H         0.693413   -3.981521   0.609726 H        1 UNL1     0.0362
     68 H         -0.398947   -3.441326   -1.215353 H        1 UNL1     0.0741
     69 H         -0.464695   -1.016772   -2.284747 H        1 UNL1     0.0359
     70 H         1.374089   0.133384   -2.828371 H        1 UNL1     0.0600
     71 H         1.255608   1.514492   -1.160074 H        1 UNL1     0.0348
     72 H         3.626562   0.987235   -0.979452 H        1 UNL1     0.0602
     73 H         3.860203   -3.777346   0.625391 H        1 UNL1     0.0628
     74 H         4.72353   -3.219339   -2.27356 H        1 UNL1     0.1022
     75 H         10.455457   4.892189   3.986793 H        1 UNL1     0.0279
     76 H         9.640797   4.217667   5.341285 H        1 UNL1     0.0279
     77 H         11.359552   3.803043   4.954937 H        1 UNL1     0.0279
     78 H         9.662765   1.618149   5.864692 H        1 UNL1     0.1553
     79 H         7.78375   2.012013   5.374388 H        1 UNL1     0.1484
     80 H         4.453881   0.19112   5.185124 H        1 UNL1     0.0317
     81 H         5.930391   -0.583461   5.741782 H        1 UNL1     0.0317
     82 H         6.619393   1.487435   6.978864 H        1 UNL1     0.0428
     83 H         5.053008   0.889877   7.479927 H        1 UNL1     0.0428
     84 H         5.061667   4.160778   4.758848 H        1 UNL1     0.0428
     85 H         6.608616   3.587347   5.275809 H        1 UNL1     0.0428
     86 H         5.804254   2.814656   3.044039 H        1 UNL1     0.0317
     87 H         4.426402   2.05215   3.694009 H        1 UNL1     0.0317
     88 H         5.657704   3.535877   7.981562 H        1 UNL1     0.0429
     89 H         4.530417   4.520201   7.045312 H        1 UNL1     0.0429
     90 H         4.028741   2.350335   9.065915 H        1 UNL1     0.0308
     91 H         2.529187   4.853905   8.127766 H        1 UNL1     0.0233
     92 H         1.851161   3.705294   9.309488 H        1 UNL1     0.0233
     93 H         3.307762   4.600681   9.685251 H        1 UNL1     0.0233
     94 H         1.740117   1.91982   7.905815 H        1 UNL1     0.0233
     95 H         2.602991   2.387477   6.432359 H        1 UNL1     0.0233
     96 H         3.173453   1.004723   7.394935 H        1 UNL1     0.0233
     97 H         9.516914   -6.093921   1.532806 H        1 UNL1     0.0280
     98 H         10.597825   -5.306824   0.415086 H        1 UNL1     0.0280
     99 H         11.128509   -5.613438   2.09559 H        1 UNL1     0.0280
     100 H         11.461026   -4.129643   4.232021 H        1 UNL1     0.2922
     101 H         5.459302   1.688469   -2.167738 H        1 UNL1     0.0236
     102 H         6.112176   3.222846   -1.470956 H        1 UNL1     0.0236
     103 H         4.411465   3.007381   -1.747813 H        1 UNL1     0.0236
     104 H         2.324808   2.883846   -0.910193 H        1 UNL1     0.2098
     105 H         1.27866   -0.534289   1.0442 H        1 UNL1     0.0234
     106 H         0.633466   1.131006   1.084365 H        1 UNL1     0.0234
     107 H         -0.0   0.0   0.0 H        1 UNL1     0.0234
     108 H         3.562172   -0.444012   -1.974426 H        1 UNL1     0.2098
     109 H         2.346819   -3.163962   1.993777 H        1 UNL1     0.0234
     110 H         2.578271   -1.677822   1.018779 H        1 UNL1     0.0234
     111 H         1.107028   -1.931397   1.890551 H        1 UNL1     0.0234
     112 H         -2.827278   0.155999   -1.726658 H        1 UNL1     0.0342
     113 H         -1.361348   -0.738803   -2.263886 H        1 UNL1     0.0342
     114 H         -2.871469   -1.600882   -1.956763 H        1 UNL1     0.0342
     115 H         -0.004454   -1.988563   -4.225976 H        1 UNL1     0.0234
     116 H         1.295628   -3.009343   -3.602615 H        1 UNL1     0.0234
     117 H         -0.419294   -3.342905   -3.28414 H        1 UNL1     0.0234
     118 H         4.986982   -5.174507   0.980158 H        1 UNL1     0.0309
     119 H         6.396078   -5.202088   2.085485 H        1 UNL1     0.0309
     120 H         5.160004   -3.968944   2.202243 H        1 UNL1     0.0309
     121 H         2.133154   -4.981221   -3.86707 H        1 UNL1     0.0524
     122 H         2.124385   -5.938608   -2.380399 H        1 UNL1     0.0524
     123 H         0.663577   -5.036796   -2.856336 H        1 UNL1     0.0524
@<TRIPOS>BOND
     1     1     2    1
     2     1    42    1
     3     2     3    2
     4     3     4    1
     5     4     5    2
     6     5     7    1
     7     6    75    1
     8     6    76    1
     9     6    77    1
    10     7     9   am
    11     9    10    1
    12    10    11    2
    13    10    43    1
    14    11    14    1
    15    11    15    1
    16    12    13   ar
    17    12    27   ar
    18    12    43    1
    19    13    14    1
    20    13    30   ar
    21    14    17    2
    22    15    16    1
    23    16    17    1
    24    16    18    1
    25    16    22    1
    26    18    19    1
    27    19    20    1
    28    20    21    1
    29    21    22    1
    30    23    24    1
    31    23    88    1
    32    23    89    1
    33    24    25    1
    34    24    26    1
    35    24    90    1
    36    25    91    1
    37    25    92    1
    38    25    93    1
    39    26    94    1
    40    26    95    1
    41    26    96    1
    42    27    28   ar
    43    28    29   ar
    44    29    30   ar
    45    29    31    1
    46    30    33    1
    47    31    32    1
    48    32    33    1
    49    32    35    1
    50    34    97    1
    51    34    98    1
    52    34    99    1
    53    35    61    1
    54    36    37    1
    55    36    60    1
    56    37    38    1
    57    38    39    1
    58    39    40    1
    59    40    41    1
    60    41    42    1
    61    45   100    1
    62    47   101    1
    63    47   102    1
    64    47   103    1
    65    48   104    1
    66    49   105    1
    67    49   106    1
    68    49   107    1
    69    50   108    1
    70    51    59    1
    71    52   109    1
    72    52   110    1
    73    52   111    1
    74    53    54    1
    75    54    55    2
    76    54    56    1
    77    56   112    1
    78    56   113    1
    79    56   114    1
    80    57   115    1
    81    57   116    1
    82    57   117    1
    83    58   118    1
    84    58   119    1
    85    58   120    1
    86    59   121    1
    87    59   122    1
    88    59   123    1
    89    60    61    2
    90     1    47    1
    91     1    62    1
    92     2    63    1
    93     3    64    1
    94     4    65    1
    95     5     6    1
    96     7     8    2
    97     9    78    1
    98    15    79    1
    99    18    80    1
   100    18    81    1
   101    19    82    1
   102    19    83    1
   103    20    23    1
   104    21    84    1
   105    21    85    1
   106    22    86    1
   107    22    87    1
   108    27    45    1
   109    28    34    1
   110    32    58    1
   111    33    46    2
   112    36    51    1
   113    36    66    1
   114    37    52    1
   115    37    67    1
   116    38    53    1
   117    38    68    1
   118    42    48    1
   119    42    72    1
   120    43    44    2
   121    60    73    1
   122    61    74    1
   123    39    69    1
   124    39    57    1
   125    40    70    1
   126    40    50    1
   127    41    71    1
   128    41    49    1
