@<TRIPOS>MOLECULE
*****
 123 128 0 0 0
SMALL
GASTEIGER

@<TRIPOS>ATOM
     1 C         -2.354187   -2.229855   -2.553487 C.3        1 UNL1     0.0009
     2 C         -1.827559   -3.159362   -4.068649 C.2        1 UNL1     -0.0787
     3 C         -1.645261   -3.22238   -5.503515 C.2        1 UNL1     -0.0649
     4 C         -0.923302   -4.458524   -6.407441 C.2        1 UNL1     -0.0542
     5 C         -0.311799   -4.788802   -7.641969 C.2        1 UNL1     0.0115
     6 C         -0.028471   -4.276185   -9.080813 C.3        1 UNL1     -0.0348
     7 C         0.581117   -6.119594   -7.735151 C.2        1 UNL1     0.2441
     8 O         0.179133   -7.156272   -8.245281 O.2        1 UNL1     -0.2702
     9 N         1.941194   -5.938927   -7.429047 N.am        1 UNL1     -0.2772
     10 C         2.153098   -6.087469   -6.077621 C.2        1 UNL1     0.1049
     11 C         1.911314   -5.025673   -5.330391 C.2        1 UNL1     0.0801
     12 C         1.666708   -7.603666   -4.148397 C.ar        1 UNL1     0.0753
     13 C         1.216348   -6.439412   -3.448184 C.ar        1 UNL1     0.0305
     14 C         1.447737   -5.094763   -3.97109 C.2        1 UNL1     0.0924
     15 N         1.689537   -3.749427   -5.688917 N.pl3        1 UNL1     -0.3170
     16 C         1.652978   -2.95599   -4.489178 C.3        1 UNL1     0.1275
     17 N         1.191776   -3.912986   -3.417183 N.2        1 UNL1     -0.2557
     18 C         3.093959   -2.594081   -4.142337 C.3        1 UNL1     0.0016
     19 C         3.721241   -1.895439   -5.338167 C.3        1 UNL1     0.0026
     20 N         2.941518   -0.704554   -5.646147 N.3        1 UNL1     -0.3018
     21 C         1.525929   -0.945353   -5.93336 C.3        1 UNL1     0.0026
     22 C         0.914726   -1.643549   -4.71728 C.3        1 UNL1     0.0016
     23 C         3.615616   0.18812   -6.567759 C.3        1 UNL1     0.0012
     24 C         3.026294   1.604342   -6.474102 C.3        1 UNL1     -0.0339
     25 C         4.093694   2.676808   -6.747107 C.3        1 UNL1     -0.0615
     26 C         1.843731   1.739758   -7.417493 C.3        1 UNL1     -0.0615
     27 C         1.550444   -8.873292   -3.58746 C.ar        1 UNL1     0.1347
     28 C         1.039311   -9.09907   -2.321831 C.ar        1 UNL1     0.0342
     29 C         0.557376   -7.943477   -1.671056 C.ar        1 UNL1     0.1435
     30 C         0.634124   -6.669625   -2.23553 C.ar        1 UNL1     0.0774
     31 O         0.131017   -7.982292   -0.389761 O.3        1 UNL1     -0.4436
     32 C         0.18324   -6.617162   0.051336 C.3        1 UNL1     0.3143
     33 C         0.106141   -5.788461   -1.214967 C.2        1 UNL1     0.2504
     34 C         1.114289   -10.391988   -1.55839 C.3        1 UNL1     -0.0327
     35 O         -1.017486   -6.362134   0.790572 O.2        1 UNL1     -0.4528
     36 C         -0.111603   -3.729915   3.371054 C.3        1 UNL1     0.0854
     37 C         0.494717   -2.290046   3.155013 C.3        1 UNL1     0.0236
     38 C         -0.350458   -1.095418   3.810976 C.3        1 UNL1     0.1131
     39 C         -1.90282   -0.984314   3.527961 C.3        1 UNL1     0.0200
     40 C         -2.499369   -1.214735   1.987352 C.3        1 UNL1     0.0661
     41 C         -1.920579   -0.472074   0.5763 C.3        1 UNL1     0.0091
     42 C         -1.851407   -1.08824   -1.150245 C.3        1 UNL1     0.0661
     43 C         2.343481   -7.405571   -5.454152 C.2        1 UNL1     0.2131
     44 O         3.098365   -8.221322   -5.951585 O.2        1 UNL1     -0.2851
     45 O         1.971181   -9.95817   -4.353919 O.3        1 UNL1     -0.5056
     46 O         -0.316654   -4.66252   -1.354091 O.2        1 UNL1     -0.2836
     47 C         -3.903124   -2.169318   -2.469161 C.3        1 UNL1     -0.0566
     48 O         -2.416828   0.151302   -1.735865 O.3        1 UNL1     -0.3909
     49 C         -0.579393   0.160952   0.872936 C.3        1 UNL1     -0.0577
     50 O         -2.746725   -2.585149   1.745478 O.3        1 UNL1     -0.3910
     51 O         -1.394521   -3.777085   3.953572 O.3        1 UNL1     -0.3753
     52 C         1.182398   -2.151996   1.75752 C.3        1 UNL1     -0.0564
     53 O         0.406549   0.197375   3.900157 O.3        1 UNL1     -0.4608
     54 C         0.882007   0.762366   5.054564 C.2        1 UNL1     0.3042
     55 O         1.062637   0.208055   6.138053 O.2        1 UNL1     -0.2512
     56 C         1.260028   2.208547   4.904983 C.3        1 UNL1     0.0332
     57 C         -2.666031   -1.700295   4.737529 C.3        1 UNL1     -0.0567
     58 C         1.575748   -6.418052   0.693835 C.3        1 UNL1     0.0210
     59 C         -2.409662   -4.338747   3.122975 C.3        1 UNL1     0.0372
     60 C         -0.162797   -4.580284   2.150639 C.2        1 UNL1     -0.0208
     61 C         -1.139035   -5.356521   1.678241 C.2        1 UNL1     0.0882
     62 H         -2.040749   -3.085356   -1.943089 H        1 UNL1     0.0365
     63 H         -1.579398   -4.130647   -3.635646 H        1 UNL1     0.0576
     64 H         -1.826075   -2.354881   -6.142154 H        1 UNL1     0.0615
     65 H         -0.861212   -5.293434   -5.704196 H        1 UNL1     0.0622
     66 H         0.591815   -4.225899   4.054612 H        1 UNL1     0.0645
     67 H         1.403845   -2.285275   3.78113 H        1 UNL1     0.0362
     68 H         -0.266574   -1.37228   4.872971 H        1 UNL1     0.0741
     69 H         -2.22784   0.021096   3.76017 H        1 UNL1     0.0359
     70 H         -3.505498   -0.768392   2.103724 H        1 UNL1     0.0600
     71 H         -2.578308   0.418563   0.542901 H        1 UNL1     0.0348
     72 H         -2.594945   -1.71332   -0.634743 H        1 UNL1     0.0602
     73 H         0.798766   -4.60431   1.701119 H        1 UNL1     0.0628
     74 H         -2.165998   -5.347651   2.044991 H        1 UNL1     0.1022
     75 H         -0.532704   -3.294924   -9.25376 H        1 UNL1     0.0279
     76 H         1.008539   -4.052159   -9.320586 H        1 UNL1     0.0279
     77 H         -0.498067   -4.900648   -9.85491 H        1 UNL1     0.0279
     78 H         2.226251   -4.995059   -7.681896 H        1 UNL1     0.1553
     79 H         1.939966   -3.370731   -6.583795 H        1 UNL1     0.1484
     80 H         3.097051   -1.949615   -3.25497 H        1 UNL1     0.0317
     81 H         3.670256   -3.48843   -3.882195 H        1 UNL1     0.0317
     82 H         3.787124   -2.562007   -6.210668 H        1 UNL1     0.0428
     83 H         4.748763   -1.647844   -5.06994 H        1 UNL1     0.0428
     84 H         0.946573   -0.028903   -6.082621 H        1 UNL1     0.0428
     85 H         1.387997   -1.503656   -6.869624 H        1 UNL1     0.0428
     86 H         -0.141884   -1.683335   -4.906964 H        1 UNL1     0.0317
     87 H         0.990094   -0.995161   -3.835799 H        1 UNL1     0.0317
     88 H         4.676097   0.231603   -6.287076 H        1 UNL1     0.0429
     89 H         3.570512   -0.192323   -7.596352 H        1 UNL1     0.0429
     90 H         2.62453   1.760251   -5.46589 H        1 UNL1     0.0308
     91 H         3.943043   3.557652   -6.115822 H        1 UNL1     0.0233
     92 H         5.095675   2.277753   -6.57276 H        1 UNL1     0.0233
     93 H         4.079773   3.024646   -7.787131 H        1 UNL1     0.0233
     94 H         0.947919   2.034586   -6.860328 H        1 UNL1     0.0233
     95 H         2.047093   2.513745   -8.162845 H        1 UNL1     0.0233
     96 H         1.635353   0.798515   -7.933835 H        1 UNL1     0.0233
     97 H         1.981819   -10.430441   -0.906359 H        1 UNL1     0.0280
     98 H         0.242482   -10.539492   -0.907659 H        1 UNL1     0.0280
     99 H         1.175985   -11.235184   -2.265715 H        1 UNL1     0.0280
     100 H         2.901235   -10.004236   -4.489929 H        1 UNL1     0.2922
     101 H         -4.319258   -2.004324   -3.462774 H        1 UNL1     0.0236
     102 H         -4.26485   -1.437568   -1.74758 H        1 UNL1     0.0236
     103 H         -4.337689   -3.127744   -2.139364 H        1 UNL1     0.0236
     104 H         -3.390517   0.072639   -1.709159 H        1 UNL1     0.2098
     105 H         -0.61851   1.232256   1.05346 H        1 UNL1     0.0234
     106 H         -0.005854   -0.33354   1.65681 H        1 UNL1     0.0234
     107 H         0.0   0.0   0.0 H        1 UNL1     0.0234
     108 H         -3.439819   -2.869803   2.371866 H        1 UNL1     0.2098
     109 H         2.180401   -1.69733   1.828105 H        1 UNL1     0.0234
     110 H         1.249758   -3.101327   1.215325 H        1 UNL1     0.0234
     111 H         0.606461   -1.501904   1.085491 H        1 UNL1     0.0234
     112 H         1.365218   2.669692   5.891708 H        1 UNL1     0.0342
     113 H         2.166725   2.335986   4.31549 H        1 UNL1     0.0342
     114 H         0.445103   2.723426   4.377762 H        1 UNL1     0.0342
     115 H         -3.024147   -2.70104   4.45923 H        1 UNL1     0.0234
     116 H         -2.063411   -1.806881   5.641707 H        1 UNL1     0.0234
     117 H         -3.612295   -1.204978   5.015355 H        1 UNL1     0.0234
     118 H         1.748411   -5.369249   0.992507 H        1 UNL1     0.0309
     119 H         1.747812   -7.069148   1.556778 H        1 UNL1     0.0309
     120 H         2.394228   -6.619398   -0.005921 H        1 UNL1     0.0309
     121 H         -2.88604   -5.143136   3.682777 H        1 UNL1     0.0524
     122 H         -3.191862   -3.605659   2.864551 H        1 UNL1     0.0524
     123 H         -1.973612   -4.726813   2.20681 H        1 UNL1     0.0524
@<TRIPOS>BOND
     1     1     2    1
     2     1    42    1
     3     2     3    2
     4     3     4    1
     5     4     5    2
     6     5     7    1
     7     6    75    1
     8     6    76    1
     9     6    77    1
    10     7     9   am
    11     9    10    1
    12    10    11    2
    13    10    43    1
    14    11    14    1
    15    11    15    1
    16    12    13   ar
    17    12    27   ar
    18    12    43    1
    19    13    14    1
    20    13    30   ar
    21    14    17    2
    22    15    16    1
    23    16    17    1
    24    16    18    1
    25    16    22    1
    26    18    19    1
    27    19    20    1
    28    20    21    1
    29    21    22    1
    30    23    24    1
    31    23    88    1
    32    23    89    1
    33    24    25    1
    34    24    26    1
    35    24    90    1
    36    25    91    1
    37    25    92    1
    38    25    93    1
    39    26    94    1
    40    26    95    1
    41    26    96    1
    42    27    28   ar
    43    28    29   ar
    44    29    30   ar
    45    29    31    1
    46    30    33    1
    47    31    32    1
    48    32    33    1
    49    32    35    1
    50    34    97    1
    51    34    98    1
    52    34    99    1
    53    35    61    1
    54    36    37    1
    55    36    60    1
    56    37    38    1
    57    38    39    1
    58    39    40    1
    59    40    41    1
    60    41    42    1
    61    45   100    1
    62    47   101    1
    63    47   102    1
    64    47   103    1
    65    48   104    1
    66    49   105    1
    67    49   106    1
    68    49   107    1
    69    50   108    1
    70    51    59    1
    71    52   109    1
    72    52   110    1
    73    52   111    1
    74    53    54    1
    75    54    55    2
    76    54    56    1
    77    56   112    1
    78    56   113    1
    79    56   114    1
    80    57   115    1
    81    57   116    1
    82    57   117    1
    83    58   118    1
    84    58   119    1
    85    58   120    1
    86    59   121    1
    87    59   122    1
    88    59   123    1
    89    60    61    2
    90     1    47    1
    91     1    62    1
    92     2    63    1
    93     3    64    1
    94     4    65    1
    95     5     6    1
    96     7     8    2
    97     9    78    1
    98    15    79    1
    99    18    80    1
   100    18    81    1
   101    19    82    1
   102    19    83    1
   103    20    23    1
   104    21    84    1
   105    21    85    1
   106    22    86    1
   107    22    87    1
   108    27    45    1
   109    28    34    1
   110    32    58    1
   111    33    46    2
   112    36    51    1
   113    36    66    1
   114    37    52    1
   115    37    67    1
   116    38    53    1
   117    38    68    1
   118    42    48    1
   119    42    72    1
   120    43    44    2
   121    60    73    1
   122    61    74    1
   123    39    69    1
   124    39    57    1
   125    40    70    1
   126    40    50    1
   127    41    71    1
   128    41    49    1
