@<TRIPOS>MOLECULE
*****
 123 128 0 0 0
SMALL
GASTEIGER

@<TRIPOS>ATOM
     1 C         5.172896   1.735416   0.477607 C.3        1 UNL1     0.0009
     2 C         6.610284   2.535575   -0.377201 C.2        1 UNL1     -0.0787
     3 C         7.890493   2.432256   -1.045362 C.2        1 UNL1     -0.0649
     4 C         8.770144   3.663305   -1.805025 C.2        1 UNL1     -0.0542
     5 C         9.789131   3.951109   -2.746254 C.2        1 UNL1     0.0115
     6 C         10.913647   3.320635   -3.613024 C.3        1 UNL1     -0.0348
     7 C         9.887738   5.432946   -3.355701 C.2        1 UNL1     0.2441
     8 O         10.714888   6.252777   -2.981234 O.2        1 UNL1     -0.2702
     9 N         9.135754   5.640034   -4.525225 N.am        1 UNL1     -0.2772
     10 C         7.854866   6.031198   -4.209568 C.2        1 UNL1     0.1049
     11 C         7.006729   5.062906   -3.914108 C.2        1 UNL1     0.0801
     12 C         6.564258   7.644399   -2.799161 C.ar        1 UNL1     0.0753
     13 C         5.802691   6.519629   -2.348033 C.ar        1 UNL1     0.0305
     14 C         5.914329   5.212388   -2.991236 C.2        1 UNL1     0.0924
     15 N         7.124981   3.733269   -4.070984 N.pl3        1 UNL1     -0.3170
     16 C         5.853951   3.138551   -3.753105 C.3        1 UNL1     0.1275
     17 N         5.222467   4.097527   -2.773658 N.2        1 UNL1     -0.2557
     18 C         4.998701   3.197883   -5.015138 C.3        1 UNL1     0.0016
     19 C         5.749185   2.509412   -6.144018 C.3        1 UNL1     0.0026
     20 N         6.015924   1.131209   -5.756158 N.3        1 UNL1     -0.3018
     21 C         6.781325   0.970781   -4.518098 C.3        1 UNL1     0.0026
     22 C         6.006981   1.665739   -3.396796 C.3        1 UNL1     0.0016
     23 C         6.455662   0.308272   -6.865234 C.3        1 UNL1     0.0012
     24 C         5.297455   0.060502   -7.844479 C.3        1 UNL1     -0.0339
     25 C         5.373471   1.004444   -9.055781 C.3        1 UNL1     -0.0615
     26 C         5.279455   -1.396859   -8.271742 C.3        1 UNL1     -0.0615
     27 C         6.36456   8.913705   -2.261481 C.ar        1 UNL1     0.1347
     28 C         5.408294   9.187947   -1.300024 C.ar        1 UNL1     0.0342
     29 C         4.70423   8.056492   -0.836056 C.ar        1 UNL1     0.1435
     30 C         4.918737   6.77287   -1.339565 C.ar        1 UNL1     0.0774
     31 O         3.665341   8.174807   0.019349 O.3        1 UNL1     -0.4436
     32 C         2.939627   6.94393   -0.119046 C.3        1 UNL1     0.3143
     33 C         3.948805   5.94676   -0.651422 C.2        1 UNL1     0.2504
     34 C         4.966518   10.556219   -0.860973 C.3        1 UNL1     -0.0327
     35 O         2.580365   6.510768   1.198738 O.2        1 UNL1     -0.4528
     36 C         -0.66935   4.587736   0.812238 C.3        1 UNL1     0.0854
     37 C         -0.980332   3.326427   -0.08214 C.3        1 UNL1     0.0236
     38 C         -1.5831   2.06868   0.70937 C.3        1 UNL1     0.1131
     39 C         -0.856288   1.537953   2.010271 C.3        1 UNL1     0.0200
     40 C         0.804535   1.387425   2.048304 C.3        1 UNL1     0.0661
     41 C         1.759156   0.613509   0.878962 C.3        1 UNL1     0.0091
     42 C         3.466676   0.969816   0.310783 C.3        1 UNL1     0.0661
     43 C         7.511357   7.431724   -3.921673 C.2        1 UNL1     0.2131
     44 O         7.912492   8.327244   -4.642694 O.2        1 UNL1     -0.2851
     45 O         7.179027   9.945481   -2.723563 O.3        1 UNL1     -0.5056
     46 O         3.961401   4.743427   -0.518435 O.2        1 UNL1     -0.2836
     47 C         5.570908   1.307407   1.915792 C.3        1 UNL1     -0.0566
     48 O         3.911111   -0.442494   0.394281 O.3        1 UNL1     -0.3909
     49 C         0.921716   0.381156   -0.358859 C.3        1 UNL1     -0.0577
     50 O         1.409244   2.604182   2.437604 O.3        1 UNL1     -0.3910
     51 O         -0.791151   4.40103   2.204264 O.3        1 UNL1     -0.3753
     52 C         0.061256   3.160629   -1.236504 C.3        1 UNL1     -0.0564
     53 O         -2.190713   1.029865   -0.187287 O.3        1 UNL1     -0.4608
     54 C         -2.4284   -0.275532   0.155312 C.2        1 UNL1     0.3042
     55 O         -1.862226   -1.277105   -0.280736 O.2        1 UNL1     -0.2512
     56 C         -3.468215   -0.436124   1.227556 C.3        1 UNL1     0.0332
     57 C         -1.572677   2.211488   3.271742 C.3        1 UNL1     -0.0567
     58 C         1.862952   7.190276   -1.201457 C.3        1 UNL1     0.0210
     59 C         -1.099233   5.582361   2.942781 C.3        1 UNL1     0.0372
     60 C         0.661076   5.212335   0.577715 C.2        1 UNL1     -0.0208
     61 C         1.577122   5.646403   1.444428 C.2        1 UNL1     0.0882
     62 H         4.700155   2.721196   0.564011 H        1 UNL1     0.0365
     63 H         6.347465   3.590375   -0.273322 H        1 UNL1     0.0576
     64 H         8.344744   1.463605   -1.26554 H        1 UNL1     0.0615
     65 H         8.286567   4.580828   -1.45892 H        1 UNL1     0.0622
     66 H         -1.412362   5.335951   0.50215 H        1 UNL1     0.0645
     67 H         -1.846193   3.637288   -0.69223 H        1 UNL1     0.0362
     68 H         -2.528108   2.509098   1.062237 H        1 UNL1     0.0741
     69 H         -1.190484   0.528237   2.208247 H        1 UNL1     0.0359
     70 H         0.916117   0.728403   2.930517 H        1 UNL1     0.0600
     71 H         1.80051   -0.406985   1.307725 H        1 UNL1     0.0348
     72 H         3.364304   1.460171   1.289756 H        1 UNL1     0.0602
     73 H         0.777432   5.407288   -0.459446 H        1 UNL1     0.0628
     74 H         1.561144   5.437793   2.514691 H        1 UNL1     0.1022
     75 H         10.93641   2.212139   -3.479789 H        1 UNL1     0.0279
     76 H         10.811551   3.424982   -4.690872 H        1 UNL1     0.0279
     77 H         11.921077   3.600722   -3.271941 H        1 UNL1     0.0279
     78 H         9.07002   4.769299   -5.04827 H        1 UNL1     0.1553
     79 H         7.787668   3.302098   -4.68894 H        1 UNL1     0.1484
     80 H         4.036331   2.710248   -4.818102 H        1 UNL1     0.0317
     81 H         4.774692   4.234814   -5.287619 H        1 UNL1     0.0317
     82 H         6.680947   3.037408   -6.394918 H        1 UNL1     0.0428
     83 H         5.122362   2.564793   -7.034566 H        1 UNL1     0.0428
     84 H         6.899106   -0.071953   -4.20722 H        1 UNL1     0.0428
     85 H         7.812318   1.335475   -4.62473 H        1 UNL1     0.0428
     86 H         6.524515   1.415501   -2.489312 H        1 UNL1     0.0317
     87 H         5.026346   1.191327   -3.268791 H        1 UNL1     0.0317
     88 H         7.252281   0.84665   -7.395179 H        1 UNL1     0.0429
     89 H         6.886099   -0.638157   -6.513424 H        1 UNL1     0.0429
     90 H         4.346351   0.232629   -7.326804 H        1 UNL1     0.0308
     91 H         6.327096   0.90029   -9.58195 H        1 UNL1     0.0233
     92 H         4.555826   0.805417   -9.752526 H        1 UNL1     0.0233
     93 H         5.28153   2.059213   -8.769698 H        1 UNL1     0.0233
     94 H         4.585215   -1.536928   -9.107354 H        1 UNL1     0.0233
     95 H         6.27536   -1.700448   -8.606358 H        1 UNL1     0.0233
     96 H         4.968621   -2.04948   -7.45111 H        1 UNL1     0.0233
     97 H         4.168255   10.510387   -0.12619 H        1 UNL1     0.0280
     98 H         5.779553   11.121199   -0.386603 H        1 UNL1     0.0280
     99 H         4.601579   11.123605   -1.732746 H        1 UNL1     0.0280
     100 H         6.713635   10.697432   -3.045437 H        1 UNL1     0.2922
     101 H         4.704725   0.888782   2.427786 H        1 UNL1     0.0236
     102 H         6.036411   2.109037   2.488225 H        1 UNL1     0.0236
     103 H         6.315502   0.493914   1.914655 H        1 UNL1     0.0236
     104 H         4.326684   -0.569676   1.269549 H        1 UNL1     0.2098
     105 H         0.709357   1.279776   -0.932617 H        1 UNL1     0.0234
     106 H         1.288183   -0.408201   -1.015017 H        1 UNL1     0.0234
     107 H         0.0   -0.0   0.0 H        1 UNL1     0.0234
     108 H         1.226258   3.257007   1.734678 H        1 UNL1     0.2098
     109 H         1.08801   3.057131   -0.858649 H        1 UNL1     0.0234
     110 H         -0.168452   2.325348   -1.90679 H        1 UNL1     0.0234
     111 H         0.074965   4.036931   -1.898209 H        1 UNL1     0.0234
     112 H         -3.594288   -1.496157   1.467933 H        1 UNL1     0.0342
     113 H         -3.229229   0.141032   2.119531 H        1 UNL1     0.0342
     114 H         -4.424876   -0.063419   0.836334 H        1 UNL1     0.0342
     115 H         -2.642971   1.966544   3.312521 H        1 UNL1     0.0234
     116 H         -1.135086   1.932205   4.232244 H        1 UNL1     0.0234
     117 H         -1.608023   3.313364   3.221116 H        1 UNL1     0.0234
     118 H         0.963592   7.679292   -0.78791 H        1 UNL1     0.0309
     119 H         2.231935   7.776842   -2.048803 H        1 UNL1     0.0309
     120 H         1.471772   6.258739   -1.624924 H        1 UNL1     0.0309
     121 H         -0.259328   6.267911   2.833527 H        1 UNL1     0.0524
     122 H         -1.997372   6.093799   2.558314 H        1 UNL1     0.0524
     123 H         -1.252328   5.341174   3.990867 H        1 UNL1     0.0524
@<TRIPOS>BOND
     1     1     2    1
     2     1    42    1
     3     2     3    2
     4     3     4    1
     5     4     5    2
     6     5     7    1
     7     6    75    1
     8     6    76    1
     9     6    77    1
    10     7     9   am
    11     9    10    1
    12    10    11    2
    13    10    43    1
    14    11    14    1
    15    11    15    1
    16    12    13   ar
    17    12    27   ar
    18    12    43    1
    19    13    14    1
    20    13    30   ar
    21    14    17    2
    22    15    16    1
    23    16    17    1
    24    16    18    1
    25    16    22    1
    26    18    19    1
    27    19    20    1
    28    20    21    1
    29    21    22    1
    30    23    24    1
    31    23    88    1
    32    23    89    1
    33    24    25    1
    34    24    26    1
    35    24    90    1
    36    25    91    1
    37    25    92    1
    38    25    93    1
    39    26    94    1
    40    26    95    1
    41    26    96    1
    42    27    28   ar
    43    28    29   ar
    44    29    30   ar
    45    29    31    1
    46    30    33    1
    47    31    32    1
    48    32    33    1
    49    32    35    1
    50    34    97    1
    51    34    98    1
    52    34    99    1
    53    35    61    1
    54    36    37    1
    55    36    60    1
    56    37    38    1
    57    38    39    1
    58    39    40    1
    59    40    41    1
    60    41    42    1
    61    45   100    1
    62    47   101    1
    63    47   102    1
    64    47   103    1
    65    48   104    1
    66    49   105    1
    67    49   106    1
    68    49   107    1
    69    50   108    1
    70    51    59    1
    71    52   109    1
    72    52   110    1
    73    52   111    1
    74    53    54    1
    75    54    55    2
    76    54    56    1
    77    56   112    1
    78    56   113    1
    79    56   114    1
    80    57   115    1
    81    57   116    1
    82    57   117    1
    83    58   118    1
    84    58   119    1
    85    58   120    1
    86    59   121    1
    87    59   122    1
    88    59   123    1
    89    60    61    2
    90     1    47    1
    91     1    62    1
    92     2    63    1
    93     3    64    1
    94     4    65    1
    95     5     6    1
    96     7     8    2
    97     9    78    1
    98    15    79    1
    99    18    80    1
   100    18    81    1
   101    19    82    1
   102    19    83    1
   103    20    23    1
   104    21    84    1
   105    21    85    1
   106    22    86    1
   107    22    87    1
   108    27    45    1
   109    28    34    1
   110    32    58    1
   111    33    46    2
   112    36    51    1
   113    36    66    1
   114    37    52    1
   115    37    67    1
   116    38    53    1
   117    38    68    1
   118    42    48    1
   119    42    72    1
   120    43    44    2
   121    60    73    1
   122    61    74    1
   123    39    69    1
   124    39    57    1
   125    40    70    1
   126    40    50    1
   127    41    71    1
   128    41    49    1
