@<TRIPOS>MOLECULE
*****
 123 128 0 0 0
SMALL
GASTEIGER

@<TRIPOS>ATOM
     1 C         2.242945   -2.729548   -3.468793 C.3        1 UNL1     0.0009
     2 C         3.524021   -2.414332   -4.771299 C.2        1 UNL1     -0.0787
     3 C         3.907532   -2.347588   -6.165756 C.2        1 UNL1     -0.0649
     4 C         5.380239   -1.823499   -6.816005 C.2        1 UNL1     -0.0542
     5 C         6.030214   -1.342762   -7.979406 C.2        1 UNL1     0.0115
     6 C         5.867182   -1.118219   -9.507909 C.3        1 UNL1     -0.0348
     7 C         7.444012   -0.597686   -7.827667 C.2        1 UNL1     0.2441
     8 O         8.51184   -1.139024   -8.079108 O.2        1 UNL1     -0.2702
     9 N         7.359724   0.792795   -7.63896 N.am        1 UNL1     -0.2772
     10 C         7.244218   1.089601   -6.300346 C.2        1 UNL1     0.1049
     11 C         6.028604   1.012596   -5.789881 C.2        1 UNL1     0.0801
     12 C         8.255454   0.599547   -4.06549 C.ar        1 UNL1     0.0753
     13 C         6.926396   0.322383   -3.612287 C.ar        1 UNL1     0.0305
     14 C         5.757095   0.647839   -4.425838 C.2        1 UNL1     0.0924
     15 N         4.839388   0.893939   -6.404872 N.pl3        1 UNL1     -0.3170
     16 C         3.81272   1.027548   -5.405694 C.3        1 UNL1     0.1275
     17 N         4.463982   0.554308   -4.129126 N.2        1 UNL1     -0.2557
     18 C         3.553138   2.519572   -5.220805 C.3        1 UNL1     0.0016
     19 C         3.197733   3.122304   -6.570616 C.3        1 UNL1     0.0026
     20 N         2.017008   2.445329   -7.088903 N.3        1 UNL1     -0.3018
     21 C         2.149369   0.995149   -7.243268 C.3        1 UNL1     0.0026
     22 C         2.501925   0.409935   -5.874647 C.3        1 UNL1     0.0016
     23 C         1.420936   3.134611   -8.215948 C.3        1 UNL1     0.0012
     24 C         2.223202   4.399632   -8.559235 C.3        1 UNL1     -0.0339
     25 C         1.422773   5.342584   -9.472588 C.3        1 UNL1     -0.0615
     26 C         2.665276   5.097755   -7.284882 C.3        1 UNL1     -0.0615
     27 C         9.357077   0.398704   -3.237114 C.ar        1 UNL1     0.1347
     28 C         9.251953   -0.036019   -1.92791 C.ar        1 UNL1     0.0342
     29 C         7.938084   -0.349094   -1.519383 C.ar        1 UNL1     0.1435
     30 C         6.828584   -0.187295   -2.350076 C.ar        1 UNL1     0.0774
     31 O         7.657822   -0.679742   -0.239878 O.3        1 UNL1     -0.4436
     32 C         6.245606   -0.457567   -0.108895 C.3        1 UNL1     0.3143
     33 C         5.698216   -0.545866   -1.519136 C.2        1 UNL1     0.2504
     34 C         10.355501   -0.034263   -0.906989 C.3        1 UNL1     -0.0327
     35 O         5.705419   -1.567637   0.618562 O.2        1 UNL1     -0.4528
     36 C         2.710947   -0.210476   2.515754 C.3        1 UNL1     0.0854
     37 C         1.427565   0.519569   1.961238 C.3        1 UNL1     0.0236
     38 C         0.033186   -0.14956   2.385171 C.3        1 UNL1     0.1131
     39 C         -0.192654   -1.69974   2.165607 C.3        1 UNL1     0.0200
     40 C         0.2866   -2.430456   0.744759 C.3        1 UNL1     0.0661
     41 C         -0.071868   -1.887573   -0.82189 C.3        1 UNL1     0.0091
     42 C         0.897092   -2.010576   -2.374755 C.3        1 UNL1     0.0661
     43 C         8.41482   1.192805   -5.416381 C.2        1 UNL1     0.2131
     44 O         9.397689   1.822352   -5.763334 O.2        1 UNL1     -0.2851
     45 O         10.619597   0.649483   -3.770586 O.3        1 UNL1     -0.5056
     46 O         4.585866   -0.86258   -1.87722 O.2        1 UNL1     -0.2836
     47 C         1.989412   -4.25382   -3.31948 C.3        1 UNL1     -0.0566
     48 O         -0.248047   -2.490907   -3.185344 O.3        1 UNL1     -0.3909
     49 C         -0.595555   -0.471072   -0.739612 C.3        1 UNL1     -0.0577
     50 O         1.639785   -2.831789   0.819233 O.3        1 UNL1     -0.3910
     51 O         2.48772   -1.44424   3.160292 O.3        1 UNL1     -0.3753
     52 C         1.665755   1.110722   0.533389 C.3        1 UNL1     -0.0564
     53 O         -1.154296   0.738123   2.152296 O.3        1 UNL1     -0.4608
     54 C         -1.101032   2.057544   1.785938 C.2        1 UNL1     0.3042
     55 O         -1.883268   2.952823   2.102833 O.2        1 UNL1     -0.2512
     56 C         0.098463   2.401491   0.949503 C.3        1 UNL1     0.0332
     57 C         0.161164   -2.438038   3.539617 C.3        1 UNL1     -0.0567
     58 C         6.076434   0.99221   0.402043 C.3        1 UNL1     0.0210
     59 C         3.1279   -2.56383   2.549922 C.3        1 UNL1     0.0372
     60 C         3.787207   -0.43842   1.513325 C.2        1 UNL1     -0.0208
     61 C         4.528591   -1.520457   1.271891 C.2        1 UNL1     0.0882
     62 H         2.981185   -2.458739   -2.704348 H        1 UNL1     0.0365
     63 H         4.404496   -2.233249   -4.151264 H        1 UNL1     0.0576
     64 H         3.178735   -2.487735   -6.967205 H        1 UNL1     0.0615
     65 H         6.050248   -1.793009   -5.952499 H        1 UNL1     0.0622
     66 H         3.129305   0.488865   3.25328 H        1 UNL1     0.0645
     67 H         1.395285   1.46902   2.523431 H        1 UNL1     0.0362
     68 H         0.088459   -0.0144   3.476134 H        1 UNL1     0.0741
     69 H         -1.254819   -1.903677   2.190588 H        1 UNL1     0.0359
     70 H         -0.286234   -3.375021   0.813452 H        1 UNL1     0.0600
     71 H         -1.004809   -2.453078   -1.013672 H        1 UNL1     0.0348
     72 H         1.31073   -2.772353   -1.69806 H        1 UNL1     0.0602
     73 H         4.014889   0.479361   1.030534 H        1 UNL1     0.0628
     74 H         4.325542   -2.510862   1.680676 H        1 UNL1     0.1022
     75 H         5.376631   -0.135521   -9.709648 H        1 UNL1     0.0279
     76 H         6.784319   -1.045716   -10.088145 H        1 UNL1     0.0279
     77 H         5.151226   -1.816076   -9.966279 H        1 UNL1     0.0279
     78 H         6.528961   1.15149   -8.105058 H        1 UNL1     0.1553
     79 H         4.688334   1.11324   -7.372354 H        1 UNL1     0.1484
     80 H         2.741283   2.654079   -4.495846 H        1 UNL1     0.0317
     81 H         4.432735   3.020946   -4.802972 H        1 UNL1     0.0317
     82 H         4.035807   3.055122   -7.279862 H        1 UNL1     0.0428
     83 H         3.018407   4.186741   -6.416127 H        1 UNL1     0.0428
     84 H         1.224666   0.50129   -7.557654 H        1 UNL1     0.0428
     85 H         2.872424   0.731857   -8.027606 H        1 UNL1     0.0428
     86 H         2.459645   -0.65657   -5.996169 H        1 UNL1     0.0317
     87 H         1.69576   0.616098   -5.160021 H        1 UNL1     0.0317
     88 H         1.445853   2.459413   -9.08127 H        1 UNL1     0.0429
     89 H         0.366872   3.373864   -8.024949 H        1 UNL1     0.0429
     90 H         3.145096   4.110634   -9.077697 H        1 UNL1     0.0308
     91 H         1.374427   4.958751   -10.496031 H        1 UNL1     0.0233
     92 H         0.407661   5.479028   -9.092405 H        1 UNL1     0.0233
     93 H         1.865361   6.344458   -9.529148 H        1 UNL1     0.0233
     94 H         2.8839   4.359254   -6.506001 H        1 UNL1     0.0233
     95 H         3.577292   5.671973   -7.470524 H        1 UNL1     0.0233
     96 H         1.891686   5.774768   -6.911815 H        1 UNL1     0.0233
     97 H         10.069783   -0.55386   0.002744 H        1 UNL1     0.0280
     98 H         11.257908   -0.541768   -1.272168 H        1 UNL1     0.0280
     99 H         10.614074   1.004733   -0.644839 H        1 UNL1     0.0280
     100 H         11.237286   1.012771   -3.160582 H        1 UNL1     0.2922
     101 H         2.742439   -4.808337   -3.879049 H        1 UNL1     0.0236
     102 H         0.976948   -4.548784   -3.593154 H        1 UNL1     0.0236
     103 H         2.108958   -4.593372   -2.277076 H        1 UNL1     0.0236
     104 H         -0.008881   -2.383117   -4.1267 H        1 UNL1     0.2098
     105 H         -0.495608   0.098863   -1.659936 H        1 UNL1     0.0234
     106 H         -1.608971   -0.382246   -0.348428 H        1 UNL1     0.0234
     107 H         0.0   0.0   0.0 H        1 UNL1     0.0234
     108 H         1.957999   -2.950437   -0.096426 H        1 UNL1     0.2098
     109 H         1.04142   0.623   -0.228218 H        1 UNL1     0.0234
     110 H         1.520219   2.19534   0.486836 H        1 UNL1     0.0234
     111 H         2.703359   0.966972   0.203753 H        1 UNL1     0.0234
     112 H         -0.171553   2.39001   -0.11083 H        1 UNL1     0.0342
     113 H         0.533457   3.359128   1.23156 H        1 UNL1     0.0342
     114 H         0.862355   1.628453   1.110889 H        1 UNL1     0.0342
     115 H         0.87379   -1.858768   4.142773 H        1 UNL1     0.0234
     116 H         -0.707085   -2.646799   4.167798 H        1 UNL1     0.0234
     117 H         0.716483   -3.381714   3.401637 H        1 UNL1     0.0234
     118 H         6.081377   1.046397   1.504788 H        1 UNL1     0.0309
     119 H         6.832191   1.678122   0.006368 H        1 UNL1     0.0309
     120 H         5.105676   1.422351   0.13239 H        1 UNL1     0.0309
     121 H         3.407771   -3.256448   3.343212 H        1 UNL1     0.0524
     122 H         2.45855   -3.10317   1.859183 H        1 UNL1     0.0524
     123 H         4.010732   -2.24113   2.005342 H        1 UNL1     0.0524
@<TRIPOS>BOND
     1     1     2    1
     2     1    42    1
     3     2     3    2
     4     3     4    1
     5     4     5    2
     6     5     7    1
     7     6    75    1
     8     6    76    1
     9     6    77    1
    10     7     9   am
    11     9    10    1
    12    10    11    2
    13    10    43    1
    14    11    14    1
    15    11    15    1
    16    12    13   ar
    17    12    27   ar
    18    12    43    1
    19    13    14    1
    20    13    30   ar
    21    14    17    2
    22    15    16    1
    23    16    17    1
    24    16    18    1
    25    16    22    1
    26    18    19    1
    27    19    20    1
    28    20    21    1
    29    21    22    1
    30    23    24    1
    31    23    88    1
    32    23    89    1
    33    24    25    1
    34    24    26    1
    35    24    90    1
    36    25    91    1
    37    25    92    1
    38    25    93    1
    39    26    94    1
    40    26    95    1
    41    26    96    1
    42    27    28   ar
    43    28    29   ar
    44    29    30   ar
    45    29    31    1
    46    30    33    1
    47    31    32    1
    48    32    33    1
    49    32    35    1
    50    34    97    1
    51    34    98    1
    52    34    99    1
    53    35    61    1
    54    36    37    1
    55    36    60    1
    56    37    38    1
    57    38    39    1
    58    39    40    1
    59    40    41    1
    60    41    42    1
    61    45   100    1
    62    47   101    1
    63    47   102    1
    64    47   103    1
    65    48   104    1
    66    49   105    1
    67    49   106    1
    68    49   107    1
    69    50   108    1
    70    51    59    1
    71    52   109    1
    72    52   110    1
    73    52   111    1
    74    53    54    1
    75    54    55    2
    76    54    56    1
    77    56   112    1
    78    56   113    1
    79    56   114    1
    80    57   115    1
    81    57   116    1
    82    57   117    1
    83    58   118    1
    84    58   119    1
    85    58   120    1
    86    59   121    1
    87    59   122    1
    88    59   123    1
    89    60    61    2
    90     1    47    1
    91     1    62    1
    92     2    63    1
    93     3    64    1
    94     4    65    1
    95     5     6    1
    96     7     8    2
    97     9    78    1
    98    15    79    1
    99    18    80    1
   100    18    81    1
   101    19    82    1
   102    19    83    1
   103    20    23    1
   104    21    84    1
   105    21    85    1
   106    22    86    1
   107    22    87    1
   108    27    45    1
   109    28    34    1
   110    32    58    1
   111    33    46    2
   112    36    51    1
   113    36    66    1
   114    37    52    1
   115    37    67    1
   116    38    53    1
   117    38    68    1
   118    42    48    1
   119    42    72    1
   120    43    44    2
   121    60    73    1
   122    61    74    1
   123    39    69    1
   124    39    57    1
   125    40    70    1
   126    40    50    1
   127    41    71    1
   128    41    49    1
