@<TRIPOS>MOLECULE
*****
 123 128 0 0 0
SMALL
GASTEIGER

@<TRIPOS>ATOM
     1 C         5.16732   1.748233   0.491687 C.3        1 UNL1     0.0009
     2 C         6.604005   2.554606   -0.358452 C.2        1 UNL1     -0.0787
     3 C         7.885831   2.456616   -1.024309 C.2        1 UNL1     -0.0649
     4 C         8.763311   3.692002   -1.779429 C.2        1 UNL1     -0.0542
     5 C         9.783293   3.984978   -2.717981 C.2        1 UNL1     0.0115
     6 C         10.91139   3.359826   -3.583952 C.3        1 UNL1     -0.0348
     7 C         9.878691   5.468486   -3.323863 C.2        1 UNL1     0.2441
     8 O         10.702656   6.289917   -2.945896 O.2        1 UNL1     -0.2702
     9 N         9.128404   5.676001   -4.4944 N.am        1 UNL1     -0.2772
     10 C         7.845736   6.062636   -4.180394 C.2        1 UNL1     0.1049
     11 C         6.999905   5.091156   -3.888815 C.2        1 UNL1     0.0801
     12 C         6.547549   7.668775   -2.768884 C.ar        1 UNL1     0.0753
     13 C         5.788446   6.540721   -2.321822 C.ar        1 UNL1     0.0305
     14 C         5.905244   5.235287   -2.967771 C.2        1 UNL1     0.0924
     15 N         7.122424   3.762237   -4.048477 N.pl3        1 UNL1     -0.3170
     16 C         5.852545   3.16302   -3.734469 C.3        1 UNL1     0.1275
     17 N         5.216277   4.117882   -2.754098 N.2        1 UNL1     -0.2557
     18 C         4.999615   3.222685   -4.998056 C.3        1 UNL1     0.0016
     19 C         5.754372   2.539021   -6.127008 C.3        1 UNL1     0.0026
     20 N         6.024447   1.160737   -5.741753 N.3        1 UNL1     -0.3018
     21 C         6.787878   0.999765   -4.502547 C.3        1 UNL1     0.0026
     22 C         6.009256   1.689862   -3.381205 C.3        1 UNL1     0.0016
     23 C         6.468822   0.34164   -6.851822 C.3        1 UNL1     0.0012
     24 C         5.313293   0.09266   -7.833921 C.3        1 UNL1     -0.0339
     25 C         5.348988   1.085303   -9.007565 C.3        1 UNL1     -0.0615
     26 C         5.342263   -1.346635   -8.318041 C.3        1 UNL1     -0.0615
     27 C         6.343012   8.936254   -2.228718 C.ar        1 UNL1     0.1347
     28 C         5.384039   9.205461   -1.268537 C.ar        1 UNL1     0.0342
     29 C         4.682432   8.070864   -0.808535 C.ar        1 UNL1     0.1435
     30 C         4.901752   6.789036   -1.314534 C.ar        1 UNL1     0.0774
     31 O         3.641508   8.184141   0.045076 O.3        1 UNL1     -0.4436
     32 C         2.919736   6.95143   -0.097553 C.3        1 UNL1     0.3143
     33 C         3.932928   5.95848   -0.630193 C.2        1 UNL1     0.2504
     34 C         4.937325   10.57141   -0.827254 C.3        1 UNL1     -0.0327
     35 O         2.559165   6.514202   1.218529 O.2        1 UNL1     -0.4528
     36 C         -0.684042   4.582403   0.821224 C.3        1 UNL1     0.0854
     37 C         -0.9895   3.322216   -0.076631 C.3        1 UNL1     0.0236
     38 C         -1.590083   2.060883   0.710824 C.3        1 UNL1     0.1131
     39 C         -0.864263   1.529356   2.011952 C.3        1 UNL1     0.0200
     40 C         0.796923   1.383681   2.052933 C.3        1 UNL1     0.0661
     41 C         1.75615   0.615272   0.883728 C.3        1 UNL1     0.0091
     42 C         3.463719   0.977947   0.319744 C.3        1 UNL1     0.0661
     43 C         7.497492   7.461474   -3.889998 C.2        1 UNL1     0.2131
     44 O         7.897381   8.359823   -4.608186 O.2        1 UNL1     -0.2851
     45 O         7.155315   9.971496   -2.68684 O.3        1 UNL1     -0.5056
     46 O         3.948844   4.754891   -0.499915 O.2        1 UNL1     -0.2836
     47 C         5.563764   1.318134   1.929681 C.3        1 UNL1     -0.0566
     48 O         3.912192   -0.433223   0.400913 O.3        1 UNL1     -0.3909
     49 C         0.92185   0.383251   -0.356273 C.3        1 UNL1     -0.0577
     50 O         1.397236   2.601339   2.446193 O.3        1 UNL1     -0.3910
     51 O         -0.808034   4.392165   2.212578 O.3        1 UNL1     -0.3753
     52 C         0.054853   3.162146   -1.229304 C.3        1 UNL1     -0.0564
     53 O         -2.192829   1.022312   -0.189394 O.3        1 UNL1     -0.4608
     54 C         -2.427304   -0.284563   0.149767 C.2        1 UNL1     0.3042
     55 O         -1.85831   -1.283554   -0.288529 O.2        1 UNL1     -0.2512
     56 C         -3.467248   -0.450574   1.22106 C.3        1 UNL1     0.0332
     57 C         -1.585143   2.197884   3.273529 C.3        1 UNL1     -0.0567
     58 C         1.844471   7.19704   -1.181532 C.3        1 UNL1     0.0210
     59 C         -1.121088   5.570889   2.953167 C.3        1 UNL1     0.0372
     60 C         0.64498   5.211488   0.590758 C.2        1 UNL1     -0.0208
     61 C         1.558017   5.646301   1.460267 C.2        1 UNL1     0.0882
     62 H         4.691477   2.732403   0.579394 H        1 UNL1     0.0365
     63 H         6.337841   3.608382   -0.252697 H        1 UNL1     0.0576
     64 H         8.343399   1.489824   -1.245787 H        1 UNL1     0.0615
     65 H         8.276323   4.607292   -1.432199 H        1 UNL1     0.0622
     66 H         -1.428664   5.32911   0.511366 H        1 UNL1     0.0645
     67 H         -1.855077   3.631891   -0.687727 H        1 UNL1     0.0362
     68 H         -2.537092   2.497685   1.062817 H        1 UNL1     0.0741
     69 H         -1.195842   0.518203   2.206971 H        1 UNL1     0.0359
     70 H         0.908725   0.722985   2.933866 H        1 UNL1     0.0600
     71 H         1.799695   -0.406069   1.310253 H        1 UNL1     0.0348
     72 H         3.357956   1.465763   1.299624 H        1 UNL1     0.0602
     73 H         0.762802   5.409147   -0.445725 H        1 UNL1     0.0628
     74 H         1.540547   5.435207   2.53002 H        1 UNL1     0.1022
     75 H         10.955804   2.254482   -3.431384 H        1 UNL1     0.0279
     76 H         10.797671   3.443058   -4.662474 H        1 UNL1     0.0279
     77 H         11.916515   3.664325   -3.257295 H        1 UNL1     0.0279
     78 H         9.066295   4.806268   -5.019552 H        1 UNL1     0.1553
     79 H         7.78761   3.334447   -4.666098 H        1 UNL1     0.1484
     80 H         4.038315   2.731743   -4.804035 H        1 UNL1     0.0317
     81 H         4.773058   4.259563   -5.268623 H        1 UNL1     0.0317
     82 H         6.685052   3.070355   -6.374862 H        1 UNL1     0.0428
     83 H         5.129147   2.594568   -7.018668 H        1 UNL1     0.0428
     84 H         6.908149   -0.043319   -4.193807 H        1 UNL1     0.0428
     85 H         7.817988   1.367764   -4.606307 H        1 UNL1     0.0428
     86 H         6.52574   1.439098   -2.473268 H        1 UNL1     0.0317
     87 H         5.029787   1.212247   -3.256221 H        1 UNL1     0.0317
     88 H         7.264879   0.88359   -7.378964 H        1 UNL1     0.0429
     89 H         6.901379   -0.604304   -6.501312 H        1 UNL1     0.0429
     90 H         4.360315   0.211592   -7.304864 H        1 UNL1     0.0308
     91 H         6.302107   1.03467   -9.54245 H        1 UNL1     0.0233
     92 H         4.534021   0.885667   -9.707268 H        1 UNL1     0.0233
     93 H         5.222962   2.124291   -8.679759 H        1 UNL1     0.0233
     94 H         4.647692   -1.477718   -9.154835 H        1 UNL1     0.0233
     95 H         6.345721   -1.602468   -8.669587 H        1 UNL1     0.0233
     96 H         5.059352   -2.041153   -7.522067 H        1 UNL1     0.0233
     97 H         4.137753   10.521531   -0.094159 H        1 UNL1     0.0280
     98 H         5.747736   11.137722   -0.349991 H        1 UNL1     0.0280
     99 H         4.57242   11.139694   -1.698456 H        1 UNL1     0.0280
     100 H         6.688323   10.722792   -3.007925 H        1 UNL1     0.2922
     101 H         4.700965   0.884356   2.434725 H        1 UNL1     0.0236
     102 H         6.014653   2.123218   2.508925 H        1 UNL1     0.0236
     103 H         6.319957   0.515411   1.928197 H        1 UNL1     0.0236
     104 H         4.331478   -0.55968   1.274514 H        1 UNL1     0.2098
     105 H         0.709216   1.282324   -0.929219 H        1 UNL1     0.0234
     106 H         1.291125   -0.404538   -1.012743 H        1 UNL1     0.0234
     107 H         0.0   -0.0   0.0 H        1 UNL1     0.0234
     108 H         1.19927   3.259695   1.752547 H        1 UNL1     0.2098
     109 H         1.079714   3.048449   -0.849245 H        1 UNL1     0.0234
     110 H         -0.177708   2.33533   -1.909035 H        1 UNL1     0.0234
     111 H         0.076048   4.045215   -1.88175 H        1 UNL1     0.0234
     112 H         -3.599667   -1.512399   1.449836 H        1 UNL1     0.0342
     113 H         -3.224008   0.115221   2.119144 H        1 UNL1     0.0342
     114 H         -4.4219   -0.06769   0.834789 H        1 UNL1     0.0342
     115 H         -2.654781   1.949667   3.311631 H        1 UNL1     0.0234
     116 H         -1.148619   1.917716   4.234259 H        1 UNL1     0.0234
     117 H         -1.62367   3.299762   3.225337 H        1 UNL1     0.0234
     118 H         0.943468   7.683846   -0.768956 H        1 UNL1     0.0309
     119 H         2.213805   7.78533   -2.027528 H        1 UNL1     0.0309
     120 H         1.455798   6.265275   -1.6068 H        1 UNL1     0.0309
     121 H         -0.300003   6.274053   2.816282 H        1 UNL1     0.0524
     122 H         -2.040883   6.060137   2.591708 H        1 UNL1     0.0524
     123 H         -1.238982   5.332744   4.006486 H        1 UNL1     0.0524
@<TRIPOS>BOND
     1     1     2    1
     2     1    42    1
     3     2     3    2
     4     3     4    1
     5     4     5    2
     6     5     7    1
     7     6    75    1
     8     6    76    1
     9     6    77    1
    10     7     9   am
    11     9    10    1
    12    10    11    2
    13    10    43    1
    14    11    14    1
    15    11    15    1
    16    12    13   ar
    17    12    27   ar
    18    12    43    1
    19    13    14    1
    20    13    30   ar
    21    14    17    2
    22    15    16    1
    23    16    17    1
    24    16    18    1
    25    16    22    1
    26    18    19    1
    27    19    20    1
    28    20    21    1
    29    21    22    1
    30    23    24    1
    31    23    88    1
    32    23    89    1
    33    24    25    1
    34    24    26    1
    35    24    90    1
    36    25    91    1
    37    25    92    1
    38    25    93    1
    39    26    94    1
    40    26    95    1
    41    26    96    1
    42    27    28   ar
    43    28    29   ar
    44    29    30   ar
    45    29    31    1
    46    30    33    1
    47    31    32    1
    48    32    33    1
    49    32    35    1
    50    34    97    1
    51    34    98    1
    52    34    99    1
    53    35    61    1
    54    36    37    1
    55    36    60    1
    56    37    38    1
    57    38    39    1
    58    39    40    1
    59    40    41    1
    60    41    42    1
    61    45   100    1
    62    47   101    1
    63    47   102    1
    64    47   103    1
    65    48   104    1
    66    49   105    1
    67    49   106    1
    68    49   107    1
    69    50   108    1
    70    51    59    1
    71    52   109    1
    72    52   110    1
    73    52   111    1
    74    53    54    1
    75    54    55    2
    76    54    56    1
    77    56   112    1
    78    56   113    1
    79    56   114    1
    80    57   115    1
    81    57   116    1
    82    57   117    1
    83    58   118    1
    84    58   119    1
    85    58   120    1
    86    59   121    1
    87    59   122    1
    88    59   123    1
    89    60    61    2
    90     1    47    1
    91     1    62    1
    92     2    63    1
    93     3    64    1
    94     4    65    1
    95     5     6    1
    96     7     8    2
    97     9    78    1
    98    15    79    1
    99    18    80    1
   100    18    81    1
   101    19    82    1
   102    19    83    1
   103    20    23    1
   104    21    84    1
   105    21    85    1
   106    22    86    1
   107    22    87    1
   108    27    45    1
   109    28    34    1
   110    32    58    1
   111    33    46    2
   112    36    51    1
   113    36    66    1
   114    37    52    1
   115    37    67    1
   116    38    53    1
   117    38    68    1
   118    42    48    1
   119    42    72    1
   120    43    44    2
   121    60    73    1
   122    61    74    1
   123    39    69    1
   124    39    57    1
   125    40    70    1
   126    40    50    1
   127    41    71    1
   128    41    49    1
