@<TRIPOS>MOLECULE
*****
 123 128 0 0 0
SMALL
GASTEIGER

@<TRIPOS>ATOM
     1 C         3.033383   -1.579068   -3.285412 C.3        1 UNL1     0.0009
     2 C         3.420305   -3.170933   -4.153336 C.2        1 UNL1     -0.0787
     3 C         4.060784   -4.469228   -4.169592 C.2        1 UNL1     -0.0649
     4 C         3.943161   -5.672805   -5.354464 C.2        1 UNL1     -0.0542
     5 C         4.111867   -7.052431   -5.62878 C.2        1 UNL1     0.0115
     6 C         4.677699   -8.385437   -5.066415 C.3        1 UNL1     -0.0348
     7 C         3.402423   -7.679141   -6.92528 C.2        1 UNL1     0.2441
     8 O         4.006151   -7.926016   -7.960215 O.2        1 UNL1     -0.2702
     9 N         2.102264   -8.167171   -6.707184 N.am        1 UNL1     -0.2772
     10 C         1.176756   -7.164877   -6.886522 C.2        1 UNL1     0.1049
     11 C         0.978684   -6.364183   -5.855076 C.2        1 UNL1     0.0801
     12 C         0.496258   -5.353861   -8.472233 C.ar        1 UNL1     0.0753
     13 C         0.499272   -4.472879   -7.344194 C.ar        1 UNL1     0.0305
     14 C         0.612661   -4.979179   -5.978232 C.2        1 UNL1     0.0924
     15 N         1.377923   -6.486378   -4.577499 N.pl3        1 UNL1     -0.3170
     16 C         0.755291   -5.433432   -3.819945 C.3        1 UNL1     0.1275
     17 N         0.534798   -4.326591   -4.821947 N.2        1 UNL1     -0.2557
     18 C         -0.632487   -5.924515   -3.419183 C.3        1 UNL1     0.0016
     19 C         -0.485212   -7.237079   -2.66614 C.3        1 UNL1     0.0026
     20 N         0.349893   -7.012866   -1.494237 N.3        1 UNL1     -0.3018
     21 C         1.685097   -6.481011   -1.774827 C.3        1 UNL1     0.0026
     22 C         1.513235   -5.160436   -2.52745 C.3        1 UNL1     0.0016
     23 C         0.309048   -8.114677   -0.553499 C.3        1 UNL1     0.0012
     24 C         1.316557   -9.203436   -0.955105 C.3        1 UNL1     -0.0339
     25 C         2.341724   -8.673741   -1.971232 C.3        1 UNL1     -0.0615
     26 C         1.994954   -9.766879   0.281458 C.3        1 UNL1     -0.0615
     27 C         0.266877   -4.876249   -9.760405 C.ar        1 UNL1     0.1347
     28 C         -0.009737   -3.549643   -10.039067 C.ar        1 UNL1     0.0342
     29 C         0.046805   -2.692775   -8.91936 C.ar        1 UNL1     0.1435
     30 C         0.311121   -3.151346   -7.628209 C.ar        1 UNL1     0.0774
     31 O         -0.306722   -1.391997   -9.008801 O.3        1 UNL1     -0.4436
     32 C         -0.576676   -0.995687   -7.65568 C.3        1 UNL1     0.3143
     33 C         0.198121   -1.972702   -6.794666 C.2        1 UNL1     0.2504
     34 C         -0.510705   -3.009907   -11.349722 C.3        1 UNL1     -0.0327
     35 O         0.018406   0.29344   -7.462596 O.2        1 UNL1     -0.4528
     36 C         -2.129322   2.054014   -4.874985 C.3        1 UNL1     0.0854
     37 C         -2.496752   1.600394   -3.409807 C.3        1 UNL1     0.0236
     38 C         -2.13992   2.663702   -2.2636 C.3        1 UNL1     0.1131
     39 C         -0.688592   3.289427   -2.197401 C.3        1 UNL1     0.0200
     40 C         0.657162   2.325819   -2.404394 C.3        1 UNL1     0.0661
     41 C         0.964375   0.862633   -1.602949 C.3        1 UNL1     0.0091
     42 C         1.853303   -0.639557   -2.167426 C.3        1 UNL1     0.0661
     43 C         0.656684   -6.806472   -8.214462 C.2        1 UNL1     0.2131
     44 O         0.292279   -7.671886   -8.989707 O.2        1 UNL1     -0.2851
     45 O         0.326176   -5.792696   -10.808283 O.3        1 UNL1     -0.5056
     46 O         0.641655   -1.80759   -5.680274 O.2        1 UNL1     -0.2836
     47 C         4.278152   -0.651435   -3.279982 C.3        1 UNL1     -0.0566
     48 O         2.663942   -0.762786   -0.93179 O.3        1 UNL1     -0.3909
     49 C         -0.309045   0.396286   -0.93331 C.3        1 UNL1     -0.0577
     50 O         0.97951   2.2029   -3.775053 O.3        1 UNL1     -0.3910
     51 O         -1.382974   3.245193   -4.982174 O.3        1 UNL1     -0.3753
     52 C         -2.295469   0.062819   -3.209062 C.3        1 UNL1     -0.0564
     53 O         -2.803504   2.374898   -0.948848 O.3        1 UNL1     -0.4608
     54 C         -3.144052   3.310783   -0.007531 C.2        1 UNL1     0.3042
     55 O         -2.388748   3.911903   0.755364 O.2        1 UNL1     -0.2512
     56 C         -4.60984   3.639153   0.011218 C.3        1 UNL1     0.0332
     57 C         -0.730424   4.687719   -2.972776 C.3        1 UNL1     -0.0567
     58 C         -2.089577   -1.220671   -7.427552 C.3        1 UNL1     0.0210
     59 C         -2.107652   4.362549   -5.49425 C.3        1 UNL1     0.0372
     60 C         -1.422869   1.029869   -5.691815 C.2        1 UNL1     -0.0208
     61 C         -0.358197   1.142363   -6.487154 C.2        1 UNL1     0.0882
     62 H         2.423898   -1.279886   -4.146649 H        1 UNL1     0.0365
     63 H         2.961797   -2.988368   -5.127456 H        1 UNL1     0.0576
     64 H         4.575527   -4.864615   -3.291061 H        1 UNL1     0.0615
     65 H         3.492043   -5.156708   -6.206297 H        1 UNL1     0.0622
     66 H         -3.099608   2.214115   -5.36586 H        1 UNL1     0.0645
     67 H         -3.600309   1.620315   -3.391802 H        1 UNL1     0.0362
     68 H         -2.800401   3.490167   -2.567317 H        1 UNL1     0.0741
     69 H         -0.53333   3.704741   -1.210579 H        1 UNL1     0.0359
     70 H         1.43685   2.996898   -1.995983 H        1 UNL1     0.0600
     71 H         1.542221   1.235498   -0.734604 H        1 UNL1     0.0348
     72 H         2.179909   0.173675   -2.831728 H        1 UNL1     0.0602
     73 H         -1.975882   0.123797   -5.670433 H        1 UNL1     0.0628
     74 H         0.294871   2.014953   -6.523564 H        1 UNL1     0.1022
     75 H         4.606125   -8.402586   -3.952136 H        1 UNL1     0.0279
     76 H         4.150453   -9.293847   -5.349032 H        1 UNL1     0.0279
     77 H         5.763018   -8.483233   -5.215476 H        1 UNL1     0.0279
     78 H         2.016546   -8.495133   -5.747408 H        1 UNL1     0.1553
     79 H         1.668763   -7.353855   -4.165397 H        1 UNL1     0.1484
     80 H         -1.117379   -5.159912   -2.800289 H        1 UNL1     0.0317
     81 H         -1.267869   -6.063754   -4.300405 H        1 UNL1     0.0317
     82 H         -0.066291   -8.028303   -3.305188 H        1 UNL1     0.0428
     83 H         -1.486486   -7.57029   -2.39142 H        1 UNL1     0.0428
     84 H         2.262015   -6.246802   -0.874759 H        1 UNL1     0.0428
     85 H         2.310467   -7.208274   -2.310847 H        1 UNL1     0.0428
     86 H         2.497976   -4.736965   -2.59777 H        1 UNL1     0.0317
     87 H         0.971425   -4.440458   -1.902014 H        1 UNL1     0.0317
     88 H         0.58698   -7.729237   0.436189 H        1 UNL1     0.0429
     89 H         -0.704631   -8.526316   -0.465277 H        1 UNL1     0.0429
     90 H         0.776489   -10.042724   -1.409126 H        1 UNL1     0.0308
     91 H         2.983434   -9.477431   -2.344587 H        1 UNL1     0.0233
     92 H         1.838068   -8.195796   -2.814741 H        1 UNL1     0.0233
     93 H         3.003285   -7.913128   -1.539213 H        1 UNL1     0.0233
     94 H         3.044206   -9.453907   0.31234 H        1 UNL1     0.0233
     95 H         1.503666   -9.388571   1.182281 H        1 UNL1     0.0233
     96 H         1.95988   -10.859861   0.292807 H        1 UNL1     0.0233
     97 H         -0.333479   -3.700175   -12.169082 H        1 UNL1     0.0280
     98 H         -1.593745   -2.830716   -11.336641 H        1 UNL1     0.0280
     99 H         0.003159   -2.062056   -11.579109 H        1 UNL1     0.0280
     100 H         0.843368   -5.513932   -11.543419 H        1 UNL1     0.2922
     101 H         5.185954   -1.254217   -3.294305 H        1 UNL1     0.0236
     102 H         4.275564   0.064579   -2.458825 H        1 UNL1     0.0236
     103 H         4.338114   -0.033504   -4.191442 H        1 UNL1     0.0236
     104 H         2.720888   -1.712783   -0.709905 H        1 UNL1     0.2098
     105 H         -1.028845   1.186985   -0.737111 H        1 UNL1     0.0234
     106 H         -0.797742   -0.446881   -1.42134 H        1 UNL1     0.0234
     107 H         0.0   -0.0   0.0 H        1 UNL1     0.0234
     108 H         1.486558   2.998845   -4.026333 H        1 UNL1     0.2098
     109 H         -1.433014   -0.32078   -3.771854 H        1 UNL1     0.0234
     110 H         -2.203601   -0.2254   -2.156336 H        1 UNL1     0.0234
     111 H         -3.16205   -0.508933   -3.566948 H        1 UNL1     0.0234
     112 H         -5.195295   2.740783   -0.20677 H        1 UNL1     0.0342
     113 H         -4.91731   4.086329   0.955326 H        1 UNL1     0.0342
     114 H         -4.807645   4.371187   -0.783869 H        1 UNL1     0.0342
     115 H         -0.167624   4.648888   -3.91561 H        1 UNL1     0.0234
     116 H         -1.738548   5.0359   -3.206239 H        1 UNL1     0.0234
     117 H         -0.203567   5.500211   -2.443418 H        1 UNL1     0.0234
     118 H         -2.403895   -2.241231   -7.708028 H        1 UNL1     0.0309
     119 H         -2.403486   -1.019367   -6.398406 H        1 UNL1     0.0309
     120 H         -2.7104   -0.581179   -8.064525 H        1 UNL1     0.0309
     121 H         -3.061384   3.992862   -5.86986 H        1 UNL1     0.0524
     122 H         -2.32567   5.112279   -4.715526 H        1 UNL1     0.0524
     123 H         -1.548444   4.838229   -6.294943 H        1 UNL1     0.0524
@<TRIPOS>BOND
     1     1     2    1
     2     1    42    1
     3     2     3    2
     4     3     4    1
     5     4     5    2
     6     5     7    1
     7     6    75    1
     8     6    76    1
     9     6    77    1
    10     7     9   am
    11     9    10    1
    12    10    11    2
    13    10    43    1
    14    11    14    1
    15    11    15    1
    16    12    13   ar
    17    12    27   ar
    18    12    43    1
    19    13    14    1
    20    13    30   ar
    21    14    17    2
    22    15    16    1
    23    16    17    1
    24    16    18    1
    25    16    22    1
    26    18    19    1
    27    19    20    1
    28    20    21    1
    29    21    22    1
    30    23    24    1
    31    23    88    1
    32    23    89    1
    33    24    25    1
    34    24    26    1
    35    24    90    1
    36    25    91    1
    37    25    92    1
    38    25    93    1
    39    26    94    1
    40    26    95    1
    41    26    96    1
    42    27    28   ar
    43    28    29   ar
    44    29    30   ar
    45    29    31    1
    46    30    33    1
    47    31    32    1
    48    32    33    1
    49    32    35    1
    50    34    97    1
    51    34    98    1
    52    34    99    1
    53    35    61    1
    54    36    37    1
    55    36    60    1
    56    37    38    1
    57    38    39    1
    58    39    40    1
    59    40    41    1
    60    41    42    1
    61    45   100    1
    62    47   101    1
    63    47   102    1
    64    47   103    1
    65    48   104    1
    66    49   105    1
    67    49   106    1
    68    49   107    1
    69    50   108    1
    70    51    59    1
    71    52   109    1
    72    52   110    1
    73    52   111    1
    74    53    54    1
    75    54    55    2
    76    54    56    1
    77    56   112    1
    78    56   113    1
    79    56   114    1
    80    57   115    1
    81    57   116    1
    82    57   117    1
    83    58   118    1
    84    58   119    1
    85    58   120    1
    86    59   121    1
    87    59   122    1
    88    59   123    1
    89    60    61    2
    90     1    47    1
    91     1    62    1
    92     2    63    1
    93     3    64    1
    94     4    65    1
    95     5     6    1
    96     7     8    2
    97     9    78    1
    98    15    79    1
    99    18    80    1
   100    18    81    1
   101    19    82    1
   102    19    83    1
   103    20    23    1
   104    21    84    1
   105    21    85    1
   106    22    86    1
   107    22    87    1
   108    27    45    1
   109    28    34    1
   110    32    58    1
   111    33    46    2
   112    36    51    1
   113    36    66    1
   114    37    52    1
   115    37    67    1
   116    38    53    1
   117    38    68    1
   118    42    48    1
   119    42    72    1
   120    43    44    2
   121    60    73    1
   122    61    74    1
   123    39    69    1
   124    39    57    1
   125    40    70    1
   126    40    50    1
   127    41    71    1
   128    41    49    1
