@<TRIPOS>MOLECULE
*****
 123 128 0 0 0
SMALL
GASTEIGER

@<TRIPOS>ATOM
     1 C         4.350919   2.998348   1.446152 C.3        1 UNL1     0.0009
     2 C         5.658516   4.180604   0.872134 C.2        1 UNL1     -0.0787
     3 C         7.024238   4.444941   0.470918 C.2        1 UNL1     -0.0649
     4 C         7.671388   5.889717   -0.129229 C.2        1 UNL1     -0.0542
     5 C         8.738916   6.469199   -0.858382 C.2        1 UNL1     0.0115
     6 C         10.13824   6.190395   -1.472778 C.3        1 UNL1     -0.0348
     7 C         8.552645   7.941521   -1.470395 C.2        1 UNL1     0.2441
     8 O         9.039381   8.940914   -0.959682 O.2        1 UNL1     -0.2702
     9 N         8.016029   7.975897   -2.769246 N.am        1 UNL1     -0.2772
     10 C         6.641123   7.999538   -2.720307 C.2        1 UNL1     0.1049
     11 C         6.043705   6.830688   -2.575034 C.2        1 UNL1     0.0801
     12 C         4.714886   9.163203   -1.628139 C.ar        1 UNL1     0.0753
     13 C         4.210787   7.862019   -1.309685 C.ar        1 UNL1     0.0305
     14 C         4.792991   6.653186   -1.888313 C.2        1 UNL1     0.0924
     15 N         6.543222   5.586907   -2.675122 N.pl3        1 UNL1     -0.3170
     16 C         5.442146   4.663779   -2.599476 C.3        1 UNL1     0.1275
     17 N         4.397571   5.387498   -1.78534 N.2        1 UNL1     -0.2557
     18 C         4.865899   4.531091   -4.005902 C.3        1 UNL1     0.0016
     19 C         5.97919   4.104391   -4.949354 C.3        1 UNL1     0.0026
     20 N         6.525468   2.836654   -4.485186 N.3        1 UNL1     -0.3018
     21 C         7.048819   2.848668   -3.117587 C.3        1 UNL1     0.0026
     22 C         5.912759   3.275457   -2.186397 C.3        1 UNL1     0.0016
     23 C         7.377931   2.196598   -5.467163 C.3        1 UNL1     0.0012
     24 C         8.422383   3.188871   -6.002207 C.3        1 UNL1     -0.0339
     25 C         8.744255   2.923114   -7.482014 C.3        1 UNL1     -0.0615
     26 C         7.94774   4.614498   -5.780663 C.3        1 UNL1     -0.0615
     27 C         4.080419   10.315202   -1.169373 C.ar        1 UNL1     0.1347
     28 C         2.917047   10.293108   -0.420957 C.ar        1 UNL1     0.0342
     29 C         2.466474   9.000494   -0.078471 C.ar        1 UNL1     0.1435
     30 C         3.112086   7.837612   -0.500504 C.ar        1 UNL1     0.0774
     31 O         1.287781   8.809419   0.553336 O.3        1 UNL1     -0.4436
     32 C         0.961107   7.434037   0.303374 C.3        1 UNL1     0.3143
     33 C         2.284913   6.760806   0.002526 C.2        1 UNL1     0.2504
     34 C         2.046904   11.478618   -0.108678 C.3        1 UNL1     -0.0327
     35 O         0.481394   6.879611   1.534528 O.2        1 UNL1     -0.4528
     36 C         -1.991494   4.169205   0.561591 C.3        1 UNL1     0.0854
     37 C         -1.771218   2.899194   -0.347295 C.3        1 UNL1     0.0236
     38 C         -2.15625   1.501904   0.339053 C.3        1 UNL1     0.1131
     39 C         -1.582044   1.145046   1.769161 C.3        1 UNL1     0.0200
     40 C         0.017499   1.443898   2.136024 C.3        1 UNL1     0.0661
     41 C         1.354198   0.990876   1.194952 C.3        1 UNL1     0.0091
     42 C         2.979918   1.809177   0.965122 C.3        1 UNL1     0.0661
     43 C         5.884509   9.247145   -2.537643 C.2        1 UNL1     0.2131
     44 O         6.162948   10.239415   -3.186186 O.2        1 UNL1     -0.2851
     45 O         4.661547   11.541353   -1.486047 O.3        1 UNL1     -0.5056
     46 O         2.594239   5.601306   0.162939 O.2        1 UNL1     -0.2836
     47 C         4.560587   2.648029   2.943917 C.3        1 UNL1     -0.0566
     48 O         3.762389   0.56569   1.166609 O.3        1 UNL1     -0.3909
     49 C         0.868417   0.581331   -0.177558 C.3        1 UNL1     -0.0577
     50 O         0.184851   2.765443   2.6085 O.3        1 UNL1     -0.3910
     51 O         -2.327962   3.913409   1.906504 O.3        1 UNL1     -0.3753
     52 C         -0.518854   3.054585   -1.270543 C.3        1 UNL1     -0.0564
     53 O         -2.275115   0.366735   -0.635415 O.3        1 UNL1     -0.4608
     54 C         -2.962829   -0.798584   -0.418595 C.2        1 UNL1     0.3042
     55 O         -2.494939   -1.899252   -0.129721 O.2        1 UNL1     -0.2512
     56 C         -4.454444   -0.641081   -0.502202 C.3        1 UNL1     0.0332
     57 C         -2.685047   1.562367   2.849625 C.3        1 UNL1     -0.0567
     58 C         0.09068   7.416507   -0.974742 C.3        1 UNL1     0.0210
     59 C         -3.033187   4.96829   2.558997 C.3        1 UNL1     0.0372
     60 C         -0.858698   5.134422   0.578635 C.2        1 UNL1     -0.0208
     61 C         -0.280538   5.77083   1.598174 C.2        1 UNL1     0.0882
     62 H         3.623215   3.818235   1.41543 H        1 UNL1     0.0365
     63 H         5.106851   5.122653   0.898181 H        1 UNL1     0.0576
     64 H         7.756015   3.640762   0.366484 H        1 UNL1     0.0615
     65 H         6.901108   6.632881   0.09406 H        1 UNL1     0.0622
     66 H         -2.832866   4.700273   0.094575 H        1 UNL1     0.0645
     67 H         -2.552352   2.985554   -1.122493 H        1 UNL1     0.0362
     68 H         -3.234852   1.661806   0.489294 H        1 UNL1     0.0741
     69 H         -1.664542   0.077046   1.920745 H        1 UNL1     0.0359
     70 H         0.127632   0.811709   3.037838 H        1 UNL1     0.0600
     71 H         1.583766   0.005927   1.64676 H        1 UNL1     0.0348
     72 H         2.560449   2.223422   1.893433 H        1 UNL1     0.0602
     73 H         -0.598863   5.385641   -0.419674 H        1 UNL1     0.0628
     74 H         -0.448488   5.532321   2.648957 H        1 UNL1     0.1022
     75 H         10.684194   7.147386   -1.654811 H        1 UNL1     0.0279
     76 H         10.838575   5.63548   -0.85256 H        1 UNL1     0.0279
     77 H         10.081177   5.776448   -2.490173 H        1 UNL1     0.0279
     78 H         8.290161   7.136122   -3.274921 H        1 UNL1     0.1553
     79 H         7.404802   5.368526   -3.140871 H        1 UNL1     0.1484
     80 H         4.050769   3.797542   -3.990557 H        1 UNL1     0.0317
     81 H         4.429121   5.478059   -4.340756 H        1 UNL1     0.0317
     82 H         6.765121   4.870282   -5.024435 H        1 UNL1     0.0428
     83 H         5.546937   4.017525   -5.946681 H        1 UNL1     0.0428
     84 H         7.379465   1.866454   -2.765821 H        1 UNL1     0.0428
     85 H         7.944067   3.479401   -3.028019 H        1 UNL1     0.0428
     86 H         6.290991   3.14488   -1.189463 H        1 UNL1     0.0317
     87 H         5.090323   2.5519   -2.242611 H        1 UNL1     0.0317
     88 H         7.903294   1.367747   -4.97493 H        1 UNL1     0.0429
     89 H         6.788184   1.763038   -6.285086 H        1 UNL1     0.0429
     90 H         9.345988   3.086827   -5.420182 H        1 UNL1     0.0308
     91 H         7.831701   2.774714   -8.0671 H        1 UNL1     0.0233
     92 H         9.312898   3.752699   -7.908679 H        1 UNL1     0.0233
     93 H         9.360504   2.026573   -7.620885 H        1 UNL1     0.0233
     94 H         8.457149   5.293996   -6.472488 H        1 UNL1     0.0233
     95 H         6.8729   4.684119   -5.96996 H        1 UNL1     0.0233
     96 H         8.148457   4.947614   -4.75855 H        1 UNL1     0.0233
     97 H         2.451678   12.079296   0.70038 H        1 UNL1     0.0280
     98 H         1.948247   12.156893   -0.966271 H        1 UNL1     0.0280
     99 H         1.043164   11.131986   0.187037 H        1 UNL1     0.0280
     100 H         4.63443   11.763012   -2.400243 H        1 UNL1     0.2922
     101 H         5.264384   1.820748   3.032976 H        1 UNL1     0.0236
     102 H         3.628578   2.45081   3.472544 H        1 UNL1     0.0236
     103 H         5.02992   3.475954   3.501105 H        1 UNL1     0.0236
     104 H         3.150579   -0.188589   1.058341 H        1 UNL1     0.2098
     105 H         0.58731   1.411504   -0.820677 H        1 UNL1     0.0234
     106 H         1.530381   -0.101584   -0.709872 H        1 UNL1     0.0234
     107 H         0.0   -0.0   0.0 H        1 UNL1     0.0234
     108 H         1.119822   2.862614   2.873367 H        1 UNL1     0.2098
     109 H         0.335019   3.500628   -0.741716 H        1 UNL1     0.0234
     110 H         -0.20937   2.11362   -1.738035 H        1 UNL1     0.0234
     111 H         -0.722526   3.719661   -2.12033 H        1 UNL1     0.0234
     112 H         -4.941824   -1.599571   -0.299461 H        1 UNL1     0.0342
     113 H         -4.822639   0.133999   0.168266 H        1 UNL1     0.0342
     114 H         -4.711019   -0.343155   -1.528152 H        1 UNL1     0.0342
     115 H         -2.259105   1.638671   3.859545 H        1 UNL1     0.0234
     116 H         -3.184464   2.50845   2.631546 H        1 UNL1     0.0234
     117 H         -3.46254   0.794448   3.003727 H        1 UNL1     0.0234
     118 H         -0.988253   7.443537   -0.741976 H        1 UNL1     0.0309
     119 H         0.328122   8.230142   -1.667433 H        1 UNL1     0.0309
     120 H         0.202484   6.488932   -1.546766 H        1 UNL1     0.0309
     121 H         -2.835873   4.885273   3.627422 H        1 UNL1     0.0524
     122 H         -2.689656   5.964615   2.234405 H        1 UNL1     0.0524
     123 H         -4.098981   4.882955   2.366914 H        1 UNL1     0.0524
@<TRIPOS>BOND
     1     1     2    1
     2     1    42    1
     3     2     3    2
     4     3     4    1
     5     4     5    2
     6     5     7    1
     7     6    75    1
     8     6    76    1
     9     6    77    1
    10     7     9   am
    11     9    10    1
    12    10    11    2
    13    10    43    1
    14    11    14    1
    15    11    15    1
    16    12    13   ar
    17    12    27   ar
    18    12    43    1
    19    13    14    1
    20    13    30   ar
    21    14    17    2
    22    15    16    1
    23    16    17    1
    24    16    18    1
    25    16    22    1
    26    18    19    1
    27    19    20    1
    28    20    21    1
    29    21    22    1
    30    23    24    1
    31    23    88    1
    32    23    89    1
    33    24    25    1
    34    24    26    1
    35    24    90    1
    36    25    91    1
    37    25    92    1
    38    25    93    1
    39    26    94    1
    40    26    95    1
    41    26    96    1
    42    27    28   ar
    43    28    29   ar
    44    29    30   ar
    45    29    31    1
    46    30    33    1
    47    31    32    1
    48    32    33    1
    49    32    35    1
    50    34    97    1
    51    34    98    1
    52    34    99    1
    53    35    61    1
    54    36    37    1
    55    36    60    1
    56    37    38    1
    57    38    39    1
    58    39    40    1
    59    40    41    1
    60    41    42    1
    61    45   100    1
    62    47   101    1
    63    47   102    1
    64    47   103    1
    65    48   104    1
    66    49   105    1
    67    49   106    1
    68    49   107    1
    69    50   108    1
    70    51    59    1
    71    52   109    1
    72    52   110    1
    73    52   111    1
    74    53    54    1
    75    54    55    2
    76    54    56    1
    77    56   112    1
    78    56   113    1
    79    56   114    1
    80    57   115    1
    81    57   116    1
    82    57   117    1
    83    58   118    1
    84    58   119    1
    85    58   120    1
    86    59   121    1
    87    59   122    1
    88    59   123    1
    89    60    61    2
    90     1    47    1
    91     1    62    1
    92     2    63    1
    93     3    64    1
    94     4    65    1
    95     5     6    1
    96     7     8    2
    97     9    78    1
    98    15    79    1
    99    18    80    1
   100    18    81    1
   101    19    82    1
   102    19    83    1
   103    20    23    1
   104    21    84    1
   105    21    85    1
   106    22    86    1
   107    22    87    1
   108    27    45    1
   109    28    34    1
   110    32    58    1
   111    33    46    2
   112    36    51    1
   113    36    66    1
   114    37    52    1
   115    37    67    1
   116    38    53    1
   117    38    68    1
   118    42    48    1
   119    42    72    1
   120    43    44    2
   121    60    73    1
   122    61    74    1
   123    39    69    1
   124    39    57    1
   125    40    70    1
   126    40    50    1
   127    41    71    1
   128    41    49    1
