@<TRIPOS>MOLECULE
*****
 123 128 0 0 0
SMALL
GASTEIGER

@<TRIPOS>ATOM
     1 C         0.65   4.982121   -2.183512 C.3        1 UNL1     0.0009
     2 C         0.960572   6.777825   -1.842882 C.2        1 UNL1     -0.0787
     3 C         0.471753   8.134239   -1.711567 C.2        1 UNL1     -0.0649
     4 C         1.328131   9.504639   -1.206615 C.2        1 UNL1     -0.0542
     5 C         1.215763   10.817131   -0.685255 C.2        1 UNL1     0.0115
     6 C         0.214619   11.962013   -0.368587 C.3        1 UNL1     -0.0348
     7 C         2.501235   11.494746   -0.00306 C.2        1 UNL1     0.2441
     8 O         3.191078   12.331874   -0.56862 O.2        1 UNL1     -0.2702
     9 N         2.629361   11.257935   1.376671 N.am        1 UNL1     -0.2772
     10 C         3.327037   10.093407   1.601267 C.2        1 UNL1     0.1049
     11 C         2.627435   8.974874   1.540729 C.2        1 UNL1     0.0801
     12 C         5.409726   8.871453   0.948147 C.ar        1 UNL1     0.0753
     13 C         4.572082   7.738728   0.695372 C.ar        1 UNL1     0.0305
     14 C         3.17105   7.7155   1.109644 C.2        1 UNL1     0.0924
     15 N         1.296815   8.789321   1.501402 N.pl3        1 UNL1     -0.3170
     16 C         1.046508   7.377088   1.616286 C.3        1 UNL1     0.1275
     17 N         2.283893   6.726546   1.047607 N.2        1 UNL1     -0.2557
     18 C         1.03615   7.039271   3.104061 C.3        1 UNL1     0.0016
     19 C         0.00547   7.917781   3.795082 C.3        1 UNL1     0.0026
     20 N         -1.29764   7.67214   3.192926 N.3        1 UNL1     -0.3018
     21 C         -1.370573   7.910318   1.749901 C.3        1 UNL1     0.0026
     22 C         -0.330246   7.014404   1.075398 C.3        1 UNL1     0.0016
     23 C         -2.390125   8.227572   3.966628 C.3        1 UNL1     0.0012
     24 C         -1.958425   8.451444   5.42446 C.3        1 UNL1     -0.0339
     25 C         -1.888065   9.948812   5.766506 C.3        1 UNL1     -0.0615
     26 C         -2.890864   7.706653   6.363941 C.3        1 UNL1     -0.0615
     27 C         6.772095   8.840306   0.659879 C.ar        1 UNL1     0.1347
     28 C         7.415065   7.723769   0.155907 C.ar        1 UNL1     0.0342
     29 C         6.56172   6.63712   -0.13073 C.ar        1 UNL1     0.1435
     30 C         5.189137   6.666551   0.119007 C.ar        1 UNL1     0.0774
     31 O         7.051548   5.440685   -0.522671 O.3        1 UNL1     -0.4436
     32 C         5.991672   4.509892   -0.25591 C.3        1 UNL1     0.3143
     33 C         4.726205   5.343354   -0.243771 C.2        1 UNL1     0.2504
     34 C         8.902971   7.531925   0.058795 C.3        1 UNL1     -0.0327
     35 O         5.901953   3.631609   -1.384547 O.2        1 UNL1     -0.4528
     36 C         4.645644   0.317126   -0.026614 C.3        1 UNL1     0.0854
     37 C         3.326865   0.006825   0.780887 C.3        1 UNL1     0.0236
     38 C         2.394408   -1.13027   0.141135 C.3        1 UNL1     0.1131
     39 C         1.98594   -1.04417   -1.384647 C.3        1 UNL1     0.0200
     40 C         1.50948   0.408883   -2.051025 C.3        1 UNL1     0.0661
     41 C         0.34732   1.4637   -1.40732 C.3        1 UNL1     0.0091
     42 C         0.231603   3.293181   -1.478115 C.3        1 UNL1     0.0661
     43 C         4.796845   10.04948   1.610633 C.2        1 UNL1     0.2131
     44 O         5.43629   10.886307   2.221836 O.2        1 UNL1     -0.2851
     45 O         7.507562   10.000486   0.893351 O.3        1 UNL1     -0.5056
     46 O         3.593998   4.997994   -0.498111 O.2        1 UNL1     -0.2836
     47 C         0.433629   4.75109   -3.703311 C.3        1 UNL1     -0.0566
     48 O         -1.198914   3.301396   -1.868845 O.3        1 UNL1     -0.3909
     49 C         0.057964   1.05822   0.020739 C.3        1 UNL1     -0.0577
     50 O         2.628633   1.142531   -2.505974 O.3        1 UNL1     -0.3910
     51 O         4.75824   -0.306838   -1.285749 O.3        1 UNL1     -0.3753
     52 C         2.733575   1.293276   1.442701 C.3        1 UNL1     -0.0564
     53 O         1.349367   -1.650831   1.084126 O.3        1 UNL1     -0.4608
     54 C         0.55453   -2.745332   0.864508 C.2        1 UNL1     0.3042
     55 O         0.78547   -3.911668   1.180998 O.2        1 UNL1     -0.2512
     56 C         -0.756717   -2.414785   0.210227 C.3        1 UNL1     0.0332
     57 C         3.020744   -1.93997   -2.212233 C.3        1 UNL1     -0.0567
     58 C         6.240514   3.959969   1.167885 C.3        1 UNL1     0.0210
     59 C         5.932988   0.033657   -2.020525 C.3        1 UNL1     0.0372
     60 C         4.928487   1.76308   -0.237276 C.2        1 UNL1     -0.0208
     61 C         5.324256   2.416144   -1.33072 C.2        1 UNL1     0.0882
     62 H         1.709433   4.780777   -1.984079 H        1 UNL1     0.0365
     63 H         2.046732   6.778762   -1.730077 H        1 UNL1     0.0576
     64 H         -0.593114   8.367976   -1.778895 H        1 UNL1     0.0615
     65 H         2.374056   9.188982   -1.250021 H        1 UNL1     0.0622
     66 H         5.456201   -0.058279   0.613788 H        1 UNL1     0.0645
     67 H         3.685151   -0.493165   1.697512 H        1 UNL1     0.0362
     68 H         3.07789   -1.990115   0.212134 H        1 UNL1     0.0741
     69 H         1.122898   -1.675212   -1.550033 H        1 UNL1     0.0359
     70 H         1.023239   0.044141   -2.976008 H        1 UNL1     0.0600
     71 H         -0.558526   1.093021   -1.92597 H        1 UNL1     0.0348
     72 H         0.910964   3.000578   -2.291852 H        1 UNL1     0.0602
     73 H         4.89297   2.265674   0.697276 H        1 UNL1     0.0628
     74 H         5.332505   1.989893   -2.334453 H        1 UNL1     0.1022
     75 H         0.00799   12.010001   0.727787 H        1 UNL1     0.0279
     76 H         0.548918   12.973433   -0.588455 H        1 UNL1     0.0279
     77 H         -0.791128   11.770767   -0.770581 H        1 UNL1     0.0279
     78 H         1.706625   11.147143   1.791836 H        1 UNL1     0.1553
     79 H         0.629042   9.48434   1.780617 H        1 UNL1     0.1484
     80 H         0.802413   5.974882   3.227385 H        1 UNL1     0.0317
     81 H         2.025055   7.196495   3.547907 H        1 UNL1     0.0317
     82 H         0.273873   8.982913   3.737062 H        1 UNL1     0.0428
     83 H         0.015897   7.661781   4.85499 H        1 UNL1     0.0428
     84 H         -2.335986   7.642506   1.309371 H        1 UNL1     0.0428
     85 H         -1.251534   8.974765   1.504753 H        1 UNL1     0.0428
     86 H         -0.502152   7.115144   0.0198 H        1 UNL1     0.0317
     87 H         -0.560795   5.959964   1.270588 H        1 UNL1     0.0317
     88 H         -2.659863   9.197681   3.529108 H        1 UNL1     0.0429
     89 H         -3.282264   7.590555   3.911203 H        1 UNL1     0.0429
     90 H         -0.965723   8.011469   5.576703 H        1 UNL1     0.0308
     91 H         -1.202875   10.134854   6.598974 H        1 UNL1     0.0233
     92 H         -1.564067   10.528427   4.898934 H        1 UNL1     0.0233
     93 H         -2.863071   10.356459   6.059804 H        1 UNL1     0.0233
     94 H         -2.387625   7.50773   7.316315 H        1 UNL1     0.0233
     95 H         -3.776234   8.314291   6.570961 H        1 UNL1     0.0233
     96 H         -3.209961   6.75229   5.935761 H        1 UNL1     0.0233
     97 H         9.347151   8.1684   -0.7007 H        1 UNL1     0.0280
     98 H         9.414613   7.782085   0.997356 H        1 UNL1     0.0280
     99 H         9.123865   6.482744   -0.197176 H        1 UNL1     0.0280
     100 H         7.59634   10.231716   1.801246 H        1 UNL1     0.2922
     101 H         1.360028   4.951379   -4.241201 H        1 UNL1     0.0236
     102 H         -0.404762   5.317161   -4.107846 H        1 UNL1     0.0236
     103 H         0.198743   3.698317   -3.932853 H        1 UNL1     0.0236
     104 H         -1.353285   2.523238   -2.439468 H        1 UNL1     0.2098
     105 H         0.832167   1.335151   0.731886 H        1 UNL1     0.0234
     106 H         -0.921141   1.361989   0.39088 H        1 UNL1     0.0234
     107 H         -0.0   0.0   0.0 H        1 UNL1     0.0234
     108 H         2.328602   2.057296   -2.670153 H        1 UNL1     0.2098
     109 H         1.635233   1.275697   1.475055 H        1 UNL1     0.0234
     110 H         3.126797   1.480744   2.447677 H        1 UNL1     0.0234
     111 H         2.999915   2.197698   0.879645 H        1 UNL1     0.0234
     112 H         -0.878875   -1.329114   0.149057 H        1 UNL1     0.0342
     113 H         -0.851551   -2.874604   -0.772329 H        1 UNL1     0.0342
     114 H         -1.564448   -2.809515   0.84183 H        1 UNL1     0.0342
     115 H         2.547059   -2.409917   -3.085136 H        1 UNL1     0.0234
     116 H         3.895799   -1.39273   -2.568401 H        1 UNL1     0.0234
     117 H         3.375459   -2.82665   -1.659134 H        1 UNL1     0.0234
     118 H         5.326862   3.525592   1.610109 H        1 UNL1     0.0309
     119 H         7.044966   3.2187   1.207622 H        1 UNL1     0.0309
     120 H         6.516692   4.745621   1.879631 H        1 UNL1     0.0309
     121 H         6.616858   0.534066   -1.335493 H        1 UNL1     0.0524
     122 H         6.451259   -0.855565   -2.416401 H        1 UNL1     0.0524
     123 H         5.681636   0.692341   -2.846995 H        1 UNL1     0.0524
@<TRIPOS>BOND
     1     1     2    1
     2     1    42    1
     3     2     3    2
     4     3     4    1
     5     4     5    2
     6     5     7    1
     7     6    75    1
     8     6    76    1
     9     6    77    1
    10     7     9   am
    11     9    10    1
    12    10    11    2
    13    10    43    1
    14    11    14    1
    15    11    15    1
    16    12    13   ar
    17    12    27   ar
    18    12    43    1
    19    13    14    1
    20    13    30   ar
    21    14    17    2
    22    15    16    1
    23    16    17    1
    24    16    18    1
    25    16    22    1
    26    18    19    1
    27    19    20    1
    28    20    21    1
    29    21    22    1
    30    23    24    1
    31    23    88    1
    32    23    89    1
    33    24    25    1
    34    24    26    1
    35    24    90    1
    36    25    91    1
    37    25    92    1
    38    25    93    1
    39    26    94    1
    40    26    95    1
    41    26    96    1
    42    27    28   ar
    43    28    29   ar
    44    29    30   ar
    45    29    31    1
    46    30    33    1
    47    31    32    1
    48    32    33    1
    49    32    35    1
    50    34    97    1
    51    34    98    1
    52    34    99    1
    53    35    61    1
    54    36    37    1
    55    36    60    1
    56    37    38    1
    57    38    39    1
    58    39    40    1
    59    40    41    1
    60    41    42    1
    61    45   100    1
    62    47   101    1
    63    47   102    1
    64    47   103    1
    65    48   104    1
    66    49   105    1
    67    49   106    1
    68    49   107    1
    69    50   108    1
    70    51    59    1
    71    52   109    1
    72    52   110    1
    73    52   111    1
    74    53    54    1
    75    54    55    2
    76    54    56    1
    77    56   112    1
    78    56   113    1
    79    56   114    1
    80    57   115    1
    81    57   116    1
    82    57   117    1
    83    58   118    1
    84    58   119    1
    85    58   120    1
    86    59   121    1
    87    59   122    1
    88    59   123    1
    89    60    61    2
    90     1    47    1
    91     1    62    1
    92     2    63    1
    93     3    64    1
    94     4    65    1
    95     5     6    1
    96     7     8    2
    97     9    78    1
    98    15    79    1
    99    18    80    1
   100    18    81    1
   101    19    82    1
   102    19    83    1
   103    20    23    1
   104    21    84    1
   105    21    85    1
   106    22    86    1
   107    22    87    1
   108    27    45    1
   109    28    34    1
   110    32    58    1
   111    33    46    2
   112    36    51    1
   113    36    66    1
   114    37    52    1
   115    37    67    1
   116    38    53    1
   117    38    68    1
   118    42    48    1
   119    42    72    1
   120    43    44    2
   121    60    73    1
   122    61    74    1
   123    39    69    1
   124    39    57    1
   125    40    70    1
   126    40    50    1
   127    41    71    1
   128    41    49    1
