@<TRIPOS>MOLECULE
*****
 123 128 0 0 0
SMALL
GASTEIGER

@<TRIPOS>ATOM
     1 C         4.971942   2.238956   0.527853 C.3        1 UNL1     0.0009
     2 C         6.359086   3.11573   -0.334778 C.2        1 UNL1     -0.0787
     3 C         7.67131   3.094164   -0.946046 C.2        1 UNL1     -0.0649
     4 C         8.457131   4.348484   -1.767948 C.2        1 UNL1     -0.0542
     5 C         9.482899   4.667824   -2.691474 C.2        1 UNL1     0.0115
     6 C         10.701298   4.092606   -3.464747 C.3        1 UNL1     -0.0348
     7 C         9.460834   6.102331   -3.411676 C.2        1 UNL1     0.2441
     8 O         10.185446   7.028034   -3.073245 O.2        1 UNL1     -0.2702
     9 N         8.744076   6.143622   -4.620272 N.am        1 UNL1     -0.2772
     10 C         7.418121   6.424338   -4.38286 C.2        1 UNL1     0.1049
     11 C         6.657961   5.399231   -4.042956 C.2        1 UNL1     0.0801
     12 C         5.913377   7.997995   -3.151324 C.ar        1 UNL1     0.0753
     13 C         5.247952   6.838133   -2.640895 C.ar        1 UNL1     0.0305
     14 C         5.516688   5.504791   -3.174781 C.2        1 UNL1     0.0924
     15 N         6.914152   4.080652   -4.090339 N.pl3        1 UNL1     -0.3170
     16 C         5.695589   3.384582   -3.772777 C.3        1 UNL1     0.1275
     17 N         4.929824   4.344446   -2.895287 N.2        1 UNL1     -0.2557
     18 C         4.894873   3.26185   -5.065639 C.3        1 UNL1     0.0016
     19 C         5.75869   2.57132   -6.108988 C.3        1 UNL1     0.0026
     20 N         6.143403   1.260401   -5.604495 N.3        1 UNL1     -0.3018
     21 C         6.86587   1.271881   -4.330808 C.3        1 UNL1     0.0026
     22 C         5.978022   1.965842   -3.29638 C.3        1 UNL1     0.0016
     23 C         6.710761   0.406216   -6.62876 C.3        1 UNL1     0.0012
     24 C         6.445702   0.990682   -8.025148 C.3        1 UNL1     -0.0339
     25 C         6.235969   -0.118888   -9.068663 C.3        1 UNL1     -0.0615
     26 C         5.262933   1.942194   -7.975524 C.3        1 UNL1     -0.0615
     27 C         5.565489   9.276833   -2.722761 C.ar        1 UNL1     0.1347
     28 C         4.545493   9.52294   -1.821045 C.ar        1 UNL1     0.0342
     29 C         3.937332   8.36328   -1.29522 C.ar        1 UNL1     0.1435
     30 C         4.29986   7.074305   -1.688079 C.ar        1 UNL1     0.0774
     31 O         2.855303   8.438355   -0.489873 O.3        1 UNL1     -0.4436
     32 C         2.261901   7.132895   -0.557109 C.3        1 UNL1     0.3143
     33 C         3.387304   6.207106   -0.972556 C.2        1 UNL1     0.2504
     34 C         3.951474   10.867852   -1.507275 C.3        1 UNL1     -0.0327
     35 O         1.889854   6.764879   0.776832 O.2        1 UNL1     -0.4528
     36 C         -1.133214   4.496431   0.425699 C.3        1 UNL1     0.0854
     37 C         -1.278138   3.146724   -0.377302 C.3        1 UNL1     0.0236
     38 C         -1.787459   1.896587   0.488432 C.3        1 UNL1     0.1131
     39 C         -1.06942   1.541492   1.852469 C.3        1 UNL1     0.0200
     40 C         0.594869   1.564699   1.962209 C.3        1 UNL1     0.0661
     41 C         1.671864   0.807248   0.892649 C.3        1 UNL1     0.0091
     42 C         3.358952   1.292734   0.360257 C.3        1 UNL1     0.0661
     43 C         6.925226   7.800001   -4.218665 C.2        1 UNL1     0.2131
     44 O         7.266901   8.675484   -4.992955 O.2        1 UNL1     -0.2851
     45 O         6.293198   10.349035   -3.234873 O.3        1 UNL1     -0.5056
     46 O         3.513227   5.02466   -0.744921 O.2        1 UNL1     -0.2836
     47 C         5.346914   1.962409   2.008697 C.3        1 UNL1     -0.0566
     48 O         3.93705   -0.056585   0.570635 O.3        1 UNL1     -0.3909
     49 C         0.916692   0.398801   -0.352495 C.3        1 UNL1     -0.0577
     50 O         1.058368   2.862519   2.276146 O.3        1 UNL1     -0.3910
     51 O         -1.296877   4.402693   1.822788 O.3        1 UNL1     -0.3753
     52 C         -0.175604   3.002507   -1.476652 C.3        1 UNL1     -0.0564
     53 O         -2.249215   0.737108   -0.345065 O.3        1 UNL1     -0.4608
     54 C         -2.061417   -0.585743   -0.040555 C.2        1 UNL1     0.3042
     55 O         -2.814125   -1.318968   0.599484 O.2        1 UNL1     -0.2512
     56 C         -0.80578   -1.165493   -0.627053 C.3        1 UNL1     0.0332
     57 C         -1.903681   2.230587   3.030319 C.3        1 UNL1     -0.0567
     58 C         1.214651   7.186459   -1.69374 C.3        1 UNL1     0.0210
     59 C         -2.511952   4.959142   2.32261 C.3        1 UNL1     0.0372
     60 C         0.137778   5.234432   0.190974 C.2        1 UNL1     -0.0208
     61 C         0.967387   5.823301   1.05337 C.2        1 UNL1     0.0882
     62 H         4.400514   3.174962   0.519281 H        1 UNL1     0.0365
     63 H         5.988737   4.142955   -0.323788 H        1 UNL1     0.0576
     64 H         8.22853   2.163273   -1.072761 H        1 UNL1     0.0615
     65 H         7.8703   5.235061   -1.512815 H        1 UNL1     0.0622
     66 H         -1.932383   5.139572   0.031054 H        1 UNL1     0.0645
     67 H         -2.142933   3.321081   -1.040845 H        1 UNL1     0.0362
     68 H         -2.786025   2.263255   0.771174 H        1 UNL1     0.0741
     69 H         -1.310283   0.520526   2.117084 H        1 UNL1     0.0359
     70 H         0.732385   0.98823   2.897 H        1 UNL1     0.0600
     71 H         1.795279   -0.168813   1.4016 H        1 UNL1     0.0348
     72 H         3.165638   1.841766   1.293268 H        1 UNL1     0.0602
     73 H         0.27964   5.362284   -0.853428 H        1 UNL1     0.0628
     74 H         0.925212   5.694628   2.135452 H        1 UNL1     0.1022
     75 H         11.362291   3.510785   -2.778011 H        1 UNL1     0.0279
     76 H         10.481937   3.369544   -4.247136 H        1 UNL1     0.0279
     77 H         11.389482   4.875021   -3.816786 H        1 UNL1     0.0279
     78 H         8.787959   5.234126   -5.075209 H        1 UNL1     0.1553
     79 H         7.642775   3.674524   -4.648103 H        1 UNL1     0.1484
     80 H         3.977844   2.694518   -4.86574 H        1 UNL1     0.0317
     81 H         4.581391   4.24722   -5.426786 H        1 UNL1     0.0317
     82 H         6.643656   3.171541   -6.36683 H        1 UNL1     0.0428
     83 H         5.169147   2.495737   -7.023196 H        1 UNL1     0.0428
     84 H         7.072639   0.272768   -3.934788 H        1 UNL1     0.0428
     85 H         7.859332   1.731019   -4.428488 H        1 UNL1     0.0428
     86 H         6.477485   1.838233   -2.353915 H        1 UNL1     0.0317
     87 H         5.044555   1.404607   -3.166954 H        1 UNL1     0.0317
     88 H         7.79606   0.357725   -6.470432 H        1 UNL1     0.0429
     89 H         6.328056   -0.619478   -6.549625 H        1 UNL1     0.0429
     90 H         7.306248   1.598154   -8.329537 H        1 UNL1     0.0308
     91 H         5.553678   -0.889701   -8.697951 H        1 UNL1     0.0233
     92 H         5.838263   0.295171   -9.998176 H        1 UNL1     0.0233
     93 H         7.172259   -0.624158   -9.334933 H        1 UNL1     0.0233
     94 H         4.827589   2.056014   -8.974201 H        1 UNL1     0.0233
     95 H         4.489249   1.542374   -7.314072 H        1 UNL1     0.0233
     96 H         5.560625   2.930322   -7.613651 H        1 UNL1     0.0233
     97 H         2.884989   10.899416   -1.709374 H        1 UNL1     0.0280
     98 H         4.064607   11.133284   -0.448028 H        1 UNL1     0.0280
     99 H         4.442545   11.640509   -2.121234 H        1 UNL1     0.0280
     100 H         7.227439   10.244429   -3.191587 H        1 UNL1     0.2922
     101 H         4.818106   2.659628   2.658238 H        1 UNL1     0.0236
     102 H         6.421568   1.971508   2.18764 H        1 UNL1     0.0236
     103 H         5.015233   0.964348   2.340444 H        1 UNL1     0.0236
     104 H         3.240114   -0.618184   0.962881 H        1 UNL1     0.2098
     105 H         0.685107   1.21949   -1.026771 H        1 UNL1     0.0234
     106 H         1.361919   -0.429134   -0.904059 H        1 UNL1     0.0234
     107 H         0.0   -0.0   0.0 H        1 UNL1     0.0234
     108 H         2.019753   2.876521   2.104945 H        1 UNL1     0.2098
     109 H         -0.223288   3.808766   -2.221893 H        1 UNL1     0.0234
     110 H         0.837667   2.943607   -1.064881 H        1 UNL1     0.0234
     111 H         -0.287839   2.067927   -2.042258 H        1 UNL1     0.0234
     112 H         -0.752479   -2.236205   -0.407778 H        1 UNL1     0.0342
     113 H         -0.731121   -0.981771   -1.697808 H        1 UNL1     0.0342
     114 H         0.053976   -0.679849   -0.14525 H        1 UNL1     0.0342
     115 H         -2.442463   1.489587   3.636801 H        1 UNL1     0.0234
     116 H         -1.297682   2.833059   3.709909 H        1 UNL1     0.0234
     117 H         -2.737201   2.857933   2.670287 H        1 UNL1     0.0234
     118 H         0.18143   7.131711   -1.308433 H        1 UNL1     0.0309
     119 H         1.313884   8.073121   -2.32792 H        1 UNL1     0.0309
     120 H         1.279514   6.323972   -2.366062 H        1 UNL1     0.0309
     121 H         -3.16842   5.135948   1.471055 H        1 UNL1     0.0524
     122 H         -3.035549   4.272506   3.008478 H        1 UNL1     0.0524
     123 H         -2.312365   5.892093   2.842092 H        1 UNL1     0.0524
@<TRIPOS>BOND
     1     1     2    1
     2     1    42    1
     3     2     3    2
     4     3     4    1
     5     4     5    2
     6     5     7    1
     7     6    75    1
     8     6    76    1
     9     6    77    1
    10     7     9   am
    11     9    10    1
    12    10    11    2
    13    10    43    1
    14    11    14    1
    15    11    15    1
    16    12    13   ar
    17    12    27   ar
    18    12    43    1
    19    13    14    1
    20    13    30   ar
    21    14    17    2
    22    15    16    1
    23    16    17    1
    24    16    18    1
    25    16    22    1
    26    18    19    1
    27    19    20    1
    28    20    21    1
    29    21    22    1
    30    23    24    1
    31    23    88    1
    32    23    89    1
    33    24    25    1
    34    24    26    1
    35    24    90    1
    36    25    91    1
    37    25    92    1
    38    25    93    1
    39    26    94    1
    40    26    95    1
    41    26    96    1
    42    27    28   ar
    43    28    29   ar
    44    29    30   ar
    45    29    31    1
    46    30    33    1
    47    31    32    1
    48    32    33    1
    49    32    35    1
    50    34    97    1
    51    34    98    1
    52    34    99    1
    53    35    61    1
    54    36    37    1
    55    36    60    1
    56    37    38    1
    57    38    39    1
    58    39    40    1
    59    40    41    1
    60    41    42    1
    61    45   100    1
    62    47   101    1
    63    47   102    1
    64    47   103    1
    65    48   104    1
    66    49   105    1
    67    49   106    1
    68    49   107    1
    69    50   108    1
    70    51    59    1
    71    52   109    1
    72    52   110    1
    73    52   111    1
    74    53    54    1
    75    54    55    2
    76    54    56    1
    77    56   112    1
    78    56   113    1
    79    56   114    1
    80    57   115    1
    81    57   116    1
    82    57   117    1
    83    58   118    1
    84    58   119    1
    85    58   120    1
    86    59   121    1
    87    59   122    1
    88    59   123    1
    89    60    61    2
    90     1    47    1
    91     1    62    1
    92     2    63    1
    93     3    64    1
    94     4    65    1
    95     5     6    1
    96     7     8    2
    97     9    78    1
    98    15    79    1
    99    18    80    1
   100    18    81    1
   101    19    82    1
   102    19    83    1
   103    20    23    1
   104    21    84    1
   105    21    85    1
   106    22    86    1
   107    22    87    1
   108    27    45    1
   109    28    34    1
   110    32    58    1
   111    33    46    2
   112    36    51    1
   113    36    66    1
   114    37    52    1
   115    37    67    1
   116    38    53    1
   117    38    68    1
   118    42    48    1
   119    42    72    1
   120    43    44    2
   121    60    73    1
   122    61    74    1
   123    39    69    1
   124    39    57    1
   125    40    70    1
   126    40    50    1
   127    41    71    1
   128    41    49    1
