@<TRIPOS>MOLECULE
*****
 123 128 0 0 0
SMALL
GASTEIGER

@<TRIPOS>ATOM
     1 C         4.834086   2.405772   -0.497951 C.3        1 UNL1     0.0009
     2 C         5.798604   3.625913   -1.506909 C.2        1 UNL1     -0.0787
     3 C         6.850007   3.915984   -2.458991 C.2        1 UNL1     -0.0649
     4 C         7.225428   5.404333   -3.173297 C.2        1 UNL1     -0.0542
     5 C         7.878189   6.039624   -4.258371 C.2        1 UNL1     0.0115
     6 C         8.838849   5.807606   -5.456963 C.3        1 UNL1     -0.0348
     7 C         7.505632   7.562033   -4.605447 C.2        1 UNL1     0.2441
     8 O         8.215377   8.508423   -4.293782 O.2        1 UNL1     -0.2702
     9 N         6.4458   7.716127   -5.516031 N.am        1 UNL1     -0.2772
     10 C         5.241563   7.744468   -4.85095 C.2        1 UNL1     0.1049
     11 C         4.719332   6.571321   -4.54237 C.2        1 UNL1     0.0801
     12 C         4.065766   8.818521   -2.921896 C.ar        1 UNL1     0.0753
     13 C         3.698365   7.497447   -2.511544 C.ar        1 UNL1     0.0305
     14 C         3.902635   6.341407   -3.381542 C.2        1 UNL1     0.0924
     15 N         5.06276   5.338187   -4.952205 N.pl3        1 UNL1     -0.3170
     16 C         4.071104   4.419364   -4.459624 C.3        1 UNL1     0.1275
     17 N         3.537262   5.074251   -3.20908 N.2        1 UNL1     -0.2557
     18 C         2.919924   4.416962   -5.460864 C.3        1 UNL1     0.0016
     19 C         3.470864   4.069013   -6.834539 C.3        1 UNL1     0.0026
     20 N         4.107945   2.761195   -6.765485 N.3        1 UNL1     -0.3018
     21 C         5.188912   2.647239   -5.784214 C.3        1 UNL1     0.0026
     22 C         4.612153   2.996527   -4.411173 C.3        1 UNL1     0.0016
     23 C         4.398913   2.205941   -8.072265 C.3        1 UNL1     0.0012
     24 C         3.279831   2.55357   -9.066531 C.3        1 UNL1     -0.0339
     25 C         2.459889   1.309994   -9.447675 C.3        1 UNL1     -0.0615
     26 C         2.398442   3.650918   -8.495777 C.3        1 UNL1     -0.0615
     27 C         3.758467   9.929035   -2.139309 C.ar        1 UNL1     0.1347
     28 C         3.054592   9.847796   -0.951028 C.ar        1 UNL1     0.0342
     29 C         2.746143   8.532749   -0.542771 C.ar        1 UNL1     0.1435
     30 C         3.079358   7.408034   -1.298552 C.ar        1 UNL1     0.0774
     31 O         1.968481   8.293753   0.535713 O.3        1 UNL1     -0.4436
     32 C         1.501132   6.948481   0.354875 C.3        1 UNL1     0.3143
     33 C         2.516727   6.296064   -0.561167 C.2        1 UNL1     0.2504
     34 C         2.472786   11.006372   -0.189908 C.3        1 UNL1     -0.0327
     35 O         1.599337   6.289282   1.623364 O.2        1 UNL1     -0.4528
     36 C         -1.169766   3.693423   1.664284 C.3        1 UNL1     0.0854
     37 C         -1.439489   2.508435   0.659011 C.3        1 UNL1     0.0236
     38 C         -1.540086   1.057913   1.335481 C.3        1 UNL1     0.1131
     39 C         -0.402768   0.570639   2.321048 C.3        1 UNL1     0.0200
     40 C         1.203365   0.824765   1.949301 C.3        1 UNL1     0.0661
     41 C         1.953574   0.448896   0.475015 C.3        1 UNL1     0.0091
     42 C         3.33955   1.273615   -0.399233 C.3        1 UNL1     0.0661
     43 C         4.705849   8.975736   -4.251497 C.2        1 UNL1     0.2131
     44 O         4.709503   10.0202   -4.877452 O.2        1 UNL1     -0.2851
     45 O         4.191951   11.174705   -2.58857 O.3        1 UNL1     -0.5056
     46 O         2.811101   5.124821   -0.647119 O.2        1 UNL1     -0.2836
     47 C         5.676649   1.921386   0.712603 C.3        1 UNL1     -0.0566
     48 O         4.070795   0.011889   -0.668387 O.3        1 UNL1     -0.3909
     49 C         0.885539   0.167115   -0.558133 C.3        1 UNL1     -0.0577
     50 O         1.625785   2.097561   2.395702 O.3        1 UNL1     -0.3910
     51 O         -0.878864   3.320508   2.992343 O.3        1 UNL1     -0.3753
     52 C         -0.728404   2.737489   -0.714613 C.3        1 UNL1     -0.0564
     53 O         -2.1357   0.015356   0.435123 O.3        1 UNL1     -0.4608
     54 C         -3.358232   0.099005   -0.178349 C.2        1 UNL1     0.3042
     55 O         -4.381706   0.619396   0.263842 O.2        1 UNL1     -0.2512
     56 C         -3.375617   -0.477034   -1.565645 C.3        1 UNL1     0.0332
     57 C         -0.883521   0.896913   3.811214 C.3        1 UNL1     -0.0567
     58 C         0.150227   7.05125   -0.390795 C.3        1 UNL1     0.0210
     59 C         -1.082741   4.347518   3.961648 C.3        1 UNL1     0.0372
     60 C         -0.106284   4.645656   1.243074 C.2        1 UNL1     -0.0208
     61 C         0.896434   5.184366   1.938124 C.2        1 UNL1     0.0882
     62 H         4.208694   3.229956   -0.134199 H        1 UNL1     0.0365
     63 H         5.36146   4.565509   -1.162623 H        1 UNL1     0.0576
     64 H         7.419155   3.119516   -2.94357 H        1 UNL1     0.0615
     65 H         6.672383   6.129649   -2.570354 H        1 UNL1     0.0622
     66 H         -2.105633   4.269772   1.669048 H        1 UNL1     0.0645
     67 H         -2.480363   2.669056   0.328342 H        1 UNL1     0.0362
     68 H         -2.4281   1.210919   1.967574 H        1 UNL1     0.0741
     69 H         -0.45787   -0.506069   2.410896 H        1 UNL1     0.0359
     70 H         1.676798   0.113662   2.653044 H        1 UNL1     0.0600
     71 H         2.315499   -0.574056   0.697586 H        1 UNL1     0.0348
     72 H         3.400566   1.605885   0.64728 H        1 UNL1     0.0602
     73 H         -0.310379   4.983497   0.257449 H        1 UNL1     0.0628
     74 H         1.206666   4.853874   2.929975 H        1 UNL1     0.1022
     75 H         9.293636   4.78911   -5.403389 H        1 UNL1     0.0279
     76 H         8.388817   5.811416   -6.447177 H        1 UNL1     0.0279
     77 H         9.732971   6.446752   -5.415239 H        1 UNL1     0.0279
     78 H         6.424871   6.923181   -6.1539 H        1 UNL1     0.1553
     79 H         5.61287   5.156631   -5.771565 H        1 UNL1     0.1484
     80 H         2.165245   3.690443   -5.136218 H        1 UNL1     0.0317
     81 H         2.423724   5.392999   -5.488944 H        1 UNL1     0.0317
     82 H         4.174189   4.833287   -7.196661 H        1 UNL1     0.0428
     83 H         2.633785   4.074665   -7.533336 H        1 UNL1     0.0428
     84 H         5.596329   1.635293   -5.695964 H        1 UNL1     0.0428
     85 H         6.057393   3.261431   -6.059579 H        1 UNL1     0.0428
     86 H         5.390771   2.774706   -3.705102 H        1 UNL1     0.0317
     87 H         3.819327   2.286412   -4.146105 H        1 UNL1     0.0317
     88 H         5.336139   2.650821   -8.431408 H        1 UNL1     0.0429
     89 H         4.557768   1.121219   -8.018261 H        1 UNL1     0.0429
     90 H         3.72542   2.970673   -9.977404 H        1 UNL1     0.0308
     91 H         1.484769   1.309094   -8.951447 H        1 UNL1     0.0233
     92 H         2.312036   1.261301   -10.529053 H        1 UNL1     0.0233
     93 H         2.961407   0.376419   -9.16527 H        1 UNL1     0.0233
     94 H         1.361028   3.507354   -8.816708 H        1 UNL1     0.0233
     95 H         2.420904   3.617675   -7.402912 H        1 UNL1     0.0233
     96 H         2.728514   4.639941   -8.825704 H        1 UNL1     0.0233
     97 H         2.76347   11.961571   -0.616908 H        1 UNL1     0.0280
     98 H         1.37501   10.996073   -0.19598 H        1 UNL1     0.0280
     99 H         2.822288   10.974281   0.855039 H        1 UNL1     0.0280
     100 H         4.993759   11.156063   -3.08089 H        1 UNL1     0.2922
     101 H         5.122364   1.164349   1.266967 H        1 UNL1     0.0236
     102 H         6.011559   2.735231   1.354844 H        1 UNL1     0.0236
     103 H         6.603111   1.41394   0.395807 H        1 UNL1     0.0236
     104 H         3.487676   -0.557765   -1.207309 H        1 UNL1     0.2098
     105 H         0.696337   0.988944   -1.244144 H        1 UNL1     0.0234
     106 H         1.020402   -0.762695   -1.110576 H        1 UNL1     0.0234
     107 H         0.0   -0.0   0.0 H        1 UNL1     0.0234
     108 H         0.934456   2.738546   2.140808 H        1 UNL1     0.2098
     109 H         -1.015221   1.984717   -1.462131 H        1 UNL1     0.0234
     110 H         -0.893364   3.740488   -1.122687 H        1 UNL1     0.0234
     111 H         0.363394   2.663863   -0.622407 H        1 UNL1     0.0234
     112 H         -3.836865   0.233771   -2.257999 H        1 UNL1     0.0342
     113 H         -2.380246   -0.761609   -1.903428 H        1 UNL1     0.0342
     114 H         -3.99481   -1.384555   -1.552584 H        1 UNL1     0.0342
     115 H         -1.578138   1.747745   3.839175 H        1 UNL1     0.0234
     116 H         -1.370297   0.058958   4.314136 H        1 UNL1     0.0234
     117 H         -0.072844   1.262084   4.464967 H        1 UNL1     0.0234
     118 H         -0.581513   7.667832   0.160012 H        1 UNL1     0.0309
     119 H         0.250261   7.43879   -1.409623 H        1 UNL1     0.0309
     120 H         -0.353846   6.082979   -0.482807 H        1 UNL1     0.0309
     121 H         -1.681539   3.925404   4.768257 H        1 UNL1     0.0524
     122 H         -0.13557   4.70155   4.401607 H        1 UNL1     0.0524
     123 H         -1.599877   5.190777   3.512673 H        1 UNL1     0.0524
@<TRIPOS>BOND
     1     1     2    1
     2     1    42    1
     3     2     3    2
     4     3     4    1
     5     4     5    2
     6     5     7    1
     7     6    75    1
     8     6    76    1
     9     6    77    1
    10     7     9   am
    11     9    10    1
    12    10    11    2
    13    10    43    1
    14    11    14    1
    15    11    15    1
    16    12    13   ar
    17    12    27   ar
    18    12    43    1
    19    13    14    1
    20    13    30   ar
    21    14    17    2
    22    15    16    1
    23    16    17    1
    24    16    18    1
    25    16    22    1
    26    18    19    1
    27    19    20    1
    28    20    21    1
    29    21    22    1
    30    23    24    1
    31    23    88    1
    32    23    89    1
    33    24    25    1
    34    24    26    1
    35    24    90    1
    36    25    91    1
    37    25    92    1
    38    25    93    1
    39    26    94    1
    40    26    95    1
    41    26    96    1
    42    27    28   ar
    43    28    29   ar
    44    29    30   ar
    45    29    31    1
    46    30    33    1
    47    31    32    1
    48    32    33    1
    49    32    35    1
    50    34    97    1
    51    34    98    1
    52    34    99    1
    53    35    61    1
    54    36    37    1
    55    36    60    1
    56    37    38    1
    57    38    39    1
    58    39    40    1
    59    40    41    1
    60    41    42    1
    61    45   100    1
    62    47   101    1
    63    47   102    1
    64    47   103    1
    65    48   104    1
    66    49   105    1
    67    49   106    1
    68    49   107    1
    69    50   108    1
    70    51    59    1
    71    52   109    1
    72    52   110    1
    73    52   111    1
    74    53    54    1
    75    54    55    2
    76    54    56    1
    77    56   112    1
    78    56   113    1
    79    56   114    1
    80    57   115    1
    81    57   116    1
    82    57   117    1
    83    58   118    1
    84    58   119    1
    85    58   120    1
    86    59   121    1
    87    59   122    1
    88    59   123    1
    89    60    61    2
    90     1    47    1
    91     1    62    1
    92     2    63    1
    93     3    64    1
    94     4    65    1
    95     5     6    1
    96     7     8    2
    97     9    78    1
    98    15    79    1
    99    18    80    1
   100    18    81    1
   101    19    82    1
   102    19    83    1
   103    20    23    1
   104    21    84    1
   105    21    85    1
   106    22    86    1
   107    22    87    1
   108    27    45    1
   109    28    34    1
   110    32    58    1
   111    33    46    2
   112    36    51    1
   113    36    66    1
   114    37    52    1
   115    37    67    1
   116    38    53    1
   117    38    68    1
   118    42    48    1
   119    42    72    1
   120    43    44    2
   121    60    73    1
   122    61    74    1
   123    39    69    1
   124    39    57    1
   125    40    70    1
   126    40    50    1
   127    41    71    1
   128    41    49    1
