@<TRIPOS>MOLECULE
*****
 123 128 0 0 0
SMALL
GASTEIGER

@<TRIPOS>ATOM
     1 C         5.166448   1.751281   0.490004 C.3        1 UNL1     0.0009
     2 C         6.602298   2.558722   -0.360531 C.2        1 UNL1     -0.0787
     3 C         7.883917   2.461664   -1.026924 C.2        1 UNL1     -0.0649
     4 C         8.760339   3.697755   -1.78212 C.2        1 UNL1     -0.0542
     5 C         9.779765   3.991563   -2.721016 C.2        1 UNL1     0.0115
     6 C         10.907896   3.367294   -3.587579 C.3        1 UNL1     -0.0348
     7 C         9.874013   5.475265   -3.326604 C.2        1 UNL1     0.2441
     8 O         10.697627   6.297115   -2.948784 O.2        1 UNL1     -0.2702
     9 N         9.123129   5.682583   -4.496794 N.am        1 UNL1     -0.2772
     10 C         7.840351   6.068363   -4.182186 C.2        1 UNL1     0.1049
     11 C         6.995231   5.096302   -3.890485 C.2        1 UNL1     0.0801
     12 C         6.54175   7.673394   -2.769797 C.ar        1 UNL1     0.0753
     13 C         5.783515   6.544776   -2.322683 C.ar        1 UNL1     0.0305
     14 C         5.900852   5.239558   -2.96897 C.2        1 UNL1     0.0924
     15 N         7.118498   3.767494   -4.050493 N.pl3        1 UNL1     -0.3170
     16 C         5.849112   3.16743   -3.73611 C.3        1 UNL1     0.1275
     17 N         5.212654   4.121684   -2.755271 N.2        1 UNL1     -0.2557
     18 C         4.995638   3.226856   -4.999341 C.3        1 UNL1     0.0016
     19 C         5.75036   2.543906   -6.128749 C.3        1 UNL1     0.0026
     20 N         6.021432   1.165701   -5.74391 N.3        1 UNL1     -0.3018
     21 C         6.785458   1.004919   -4.505047 C.3        1 UNL1     0.0026
     22 C         6.006864   1.69429   -3.383238 C.3        1 UNL1     0.0016
     23 C         6.465862   0.347124   -6.854341 C.3        1 UNL1     0.0012
     24 C         5.310091   0.097656   -7.836031 C.3        1 UNL1     -0.0339
     25 C         5.334553   1.101602   -9.000312 C.3        1 UNL1     -0.0615
     26 C         5.35003   -1.336707   -8.333813 C.3        1 UNL1     -0.0615
     27 C         6.336655   8.940627   -2.229265 C.ar        1 UNL1     0.1347
     28 C         5.377902   9.209033   -1.268639 C.ar        1 UNL1     0.0342
     29 C         4.677174   8.073905   -0.80861 C.ar        1 UNL1     0.1435
     30 C         4.897075   6.792324   -1.314983 C.ar        1 UNL1     0.0774
     31 O         3.636524   8.186355   0.045444 O.3        1 UNL1     -0.4436
     32 C         2.915448   6.953235   -0.09717 C.3        1 UNL1     0.3143
     33 C         3.929032   5.961024   -0.630439 C.2        1 UNL1     0.2504
     34 C         4.930531   10.57461   -0.826872 C.3        1 UNL1     -0.0327
     35 O         2.555673   6.515493   1.218959 O.2        1 UNL1     -0.4528
     36 C         -0.686512   4.581801   0.822523 C.3        1 UNL1     0.0854
     37 C         -0.991561   3.321627   -0.075492 C.3        1 UNL1     0.0236
     38 C         -1.591056   2.059752   0.711922 C.3        1 UNL1     0.1131
     39 C         -0.86439   1.528379   2.01264 C.3        1 UNL1     0.0200
     40 C         0.796901   1.383709   2.052922 C.3        1 UNL1     0.0661
     41 C         1.756129   0.616148   0.883161 C.3        1 UNL1     0.0091
     42 C         3.463249   0.979992   0.318573 C.3        1 UNL1     0.0661
     43 C         7.491369   7.466924   -3.891338 C.2        1 UNL1     0.2131
     44 O         7.890421   8.365677   -4.609486 O.2        1 UNL1     -0.2851
     45 O         7.148141   9.976467   -2.687482 O.3        1 UNL1     -0.5056
     46 O         3.945736   4.757415   -0.500437 O.2        1 UNL1     -0.2836
     47 C         5.563732   1.321103   1.927743 C.3        1 UNL1     -0.0566
     48 O         3.912616   -0.430921   0.399246 O.3        1 UNL1     -0.3909
     49 C         0.921473   0.383894   -0.356558 C.3        1 UNL1     -0.0577
     50 O         1.396628   2.601647   2.446214 O.3        1 UNL1     -0.3910
     51 O         -0.80983   4.391176   2.213884 O.3        1 UNL1     -0.3753
     52 C         0.052427   3.162453   -1.228619 C.3        1 UNL1     -0.0564
     53 O         -2.193529   1.021013   -0.188285 O.3        1 UNL1     -0.4608
     54 C         -2.414966   -0.289309   0.146304 C.2        1 UNL1     0.3042
     55 O         -1.842475   -1.281704   -0.302301 O.2        1 UNL1     -0.2512
     56 C         -3.443726   -0.468659   1.226211 C.3        1 UNL1     0.0332
     57 C         -1.585172   2.196184   3.274656 C.3        1 UNL1     -0.0567
     58 C         1.839598   7.19843   -1.180663 C.3        1 UNL1     0.0210
     59 C         -1.154227   5.563163   2.951247 C.3        1 UNL1     0.0372
     60 C         0.642032   5.211749   0.591664 C.2        1 UNL1     -0.0208
     61 C         1.555152   5.646926   1.460904 C.2        1 UNL1     0.0882
     62 H         4.690039   2.735141   0.578123 H        1 UNL1     0.0365
     63 H         6.335533   3.612311   -0.254433 H        1 UNL1     0.0576
     64 H         8.341986   1.495201   -1.248802 H        1 UNL1     0.0615
     65 H         8.27293   4.61267   -1.43449 H        1 UNL1     0.0622
     66 H         -1.431715   5.328122   0.513131 H        1 UNL1     0.0645
     67 H         -1.857572   3.63091   -0.686171 H        1 UNL1     0.0362
     68 H         -2.538191   2.495896   1.064394 H        1 UNL1     0.0741
     69 H         -1.195272   0.516979   2.207567 H        1 UNL1     0.0359
     70 H         0.90946   0.722885   2.933662 H        1 UNL1     0.0600
     71 H         1.800469   -0.405262   1.30944 H        1 UNL1     0.0348
     72 H         3.357581   1.467525   1.298604 H        1 UNL1     0.0602
     73 H         0.759317   5.409712   -0.444822 H        1 UNL1     0.0628
     74 H         1.538241   5.435582   2.530616 H        1 UNL1     0.1022
     75 H         10.953046   2.261944   -3.435276 H        1 UNL1     0.0279
     76 H         10.793693   3.450698   -4.666036 H        1 UNL1     0.0279
     77 H         11.912965   3.672335   -3.261257 H        1 UNL1     0.0279
     78 H         9.061341   4.812929   -5.022115 H        1 UNL1     0.1553
     79 H         7.783697   3.340248   -4.668477 H        1 UNL1     0.1484
     80 H         4.034716   2.735283   -4.805044 H        1 UNL1     0.0317
     81 H         4.768339   4.263656   -5.269585 H        1 UNL1     0.0317
     82 H         6.680616   3.075863   -6.376857 H        1 UNL1     0.0428
     83 H         5.124743   2.599269   -7.020146 H        1 UNL1     0.0428
     84 H         6.90649   -0.038161   -4.196588 H        1 UNL1     0.0428
     85 H         7.815301   1.373571   -4.609138 H        1 UNL1     0.0428
     86 H         6.523866   1.443638   -2.475564 H        1 UNL1     0.0317
     87 H         5.027738   1.216048   -3.257968 H        1 UNL1     0.0317
     88 H         7.261375   0.889678   -7.381681 H        1 UNL1     0.0429
     89 H         6.899137   -0.598634   -6.504215 H        1 UNL1     0.0429
     90 H         4.357432   0.20352   -7.303633 H        1 UNL1     0.0308
     91 H         6.283231   1.057545   -9.54361 H        1 UNL1     0.0233
     92 H         4.514039   0.907493   -9.695069 H        1 UNL1     0.0233
     93 H         5.209808   2.137198   -8.661466 H        1 UNL1     0.0233
     94 H         4.653412   -1.46614   -9.169161 H        1 UNL1     0.0233
     95 H         6.354359   -1.580218   -8.691568 H        1 UNL1     0.0233
     96 H         5.076425   -2.041184   -7.543358 H        1 UNL1     0.0233
     97 H         4.137581   10.523944   -0.086673 H        1 UNL1     0.0280
     98 H         5.743204   11.144801   -0.358148 H        1 UNL1     0.0280
     99 H         4.556122   11.139481   -1.696259 H        1 UNL1     0.0280
     100 H         6.680543   10.726764   -3.010017 H        1 UNL1     0.2922
     101 H         4.7014   0.886685   2.433037 H        1 UNL1     0.0236
     102 H         6.014361   2.126333   2.506986 H        1 UNL1     0.0236
     103 H         6.320414   0.518843   1.925776 H        1 UNL1     0.0236
     104 H         4.332646   -0.557224   1.272512 H        1 UNL1     0.2098
     105 H         0.708059   1.282964   -0.929216 H        1 UNL1     0.0234
     106 H         1.290965   -0.403523   -1.013351 H        1 UNL1     0.0234
     107 H         0.0   -0.0   0.0 H        1 UNL1     0.0234
     108 H         1.19499   3.260949   1.754527 H        1 UNL1     0.2098
     109 H         1.07751   3.049298   -0.848996 H        1 UNL1     0.0234
     110 H         -0.179901   2.335647   -1.908441 H        1 UNL1     0.0234
     111 H         0.072821   4.045681   -1.880876 H        1 UNL1     0.0234
     112 H         -3.568392   -1.532816   1.448416 H        1 UNL1     0.0342
     113 H         -3.194864   0.091836   2.126076 H        1 UNL1     0.0342
     114 H         -4.404021   -0.088028   0.851887 H        1 UNL1     0.0342
     115 H         -2.649163   1.927148   3.326928 H        1 UNL1     0.0234
     116 H         -1.133018   1.935293   4.233583 H        1 UNL1     0.0234
     117 H         -1.646266   3.296482   3.215061 H        1 UNL1     0.0234
     118 H         0.938464   7.684593   -0.767616 H        1 UNL1     0.0309
     119 H         2.208233   7.787135   -2.026676 H        1 UNL1     0.0309
     120 H         1.451324   6.266522   -1.605983 H        1 UNL1     0.0309
     121 H         -0.351947   6.28741   2.812795 H        1 UNL1     0.0524
     122 H         -2.086474   6.026986   2.588174 H        1 UNL1     0.0524
     123 H         -1.266232   5.324757   4.00515 H        1 UNL1     0.0524
@<TRIPOS>BOND
     1     1     2    1
     2     1    42    1
     3     2     3    2
     4     3     4    1
     5     4     5    2
     6     5     7    1
     7     6    75    1
     8     6    76    1
     9     6    77    1
    10     7     9   am
    11     9    10    1
    12    10    11    2
    13    10    43    1
    14    11    14    1
    15    11    15    1
    16    12    13   ar
    17    12    27   ar
    18    12    43    1
    19    13    14    1
    20    13    30   ar
    21    14    17    2
    22    15    16    1
    23    16    17    1
    24    16    18    1
    25    16    22    1
    26    18    19    1
    27    19    20    1
    28    20    21    1
    29    21    22    1
    30    23    24    1
    31    23    88    1
    32    23    89    1
    33    24    25    1
    34    24    26    1
    35    24    90    1
    36    25    91    1
    37    25    92    1
    38    25    93    1
    39    26    94    1
    40    26    95    1
    41    26    96    1
    42    27    28   ar
    43    28    29   ar
    44    29    30   ar
    45    29    31    1
    46    30    33    1
    47    31    32    1
    48    32    33    1
    49    32    35    1
    50    34    97    1
    51    34    98    1
    52    34    99    1
    53    35    61    1
    54    36    37    1
    55    36    60    1
    56    37    38    1
    57    38    39    1
    58    39    40    1
    59    40    41    1
    60    41    42    1
    61    45   100    1
    62    47   101    1
    63    47   102    1
    64    47   103    1
    65    48   104    1
    66    49   105    1
    67    49   106    1
    68    49   107    1
    69    50   108    1
    70    51    59    1
    71    52   109    1
    72    52   110    1
    73    52   111    1
    74    53    54    1
    75    54    55    2
    76    54    56    1
    77    56   112    1
    78    56   113    1
    79    56   114    1
    80    57   115    1
    81    57   116    1
    82    57   117    1
    83    58   118    1
    84    58   119    1
    85    58   120    1
    86    59   121    1
    87    59   122    1
    88    59   123    1
    89    60    61    2
    90     1    47    1
    91     1    62    1
    92     2    63    1
    93     3    64    1
    94     4    65    1
    95     5     6    1
    96     7     8    2
    97     9    78    1
    98    15    79    1
    99    18    80    1
   100    18    81    1
   101    19    82    1
   102    19    83    1
   103    20    23    1
   104    21    84    1
   105    21    85    1
   106    22    86    1
   107    22    87    1
   108    27    45    1
   109    28    34    1
   110    32    58    1
   111    33    46    2
   112    36    51    1
   113    36    66    1
   114    37    52    1
   115    37    67    1
   116    38    53    1
   117    38    68    1
   118    42    48    1
   119    42    72    1
   120    43    44    2
   121    60    73    1
   122    61    74    1
   123    39    69    1
   124    39    57    1
   125    40    70    1
   126    40    50    1
   127    41    71    1
   128    41    49    1
