@<TRIPOS>MOLECULE
*****
 123 128 0 0 0
SMALL
GASTEIGER

@<TRIPOS>ATOM
     1 C         0.383117   2.207782   3.467597 C.3        1 UNL1     0.0009
     2 C         -0.267744   1.803247   5.155723 C.2        1 UNL1     -0.0787
     3 C         -1.298277   1.920235   6.165853 C.2        1 UNL1     -0.0649
     4 C         -1.387538   1.125734   7.658219 C.2        1 UNL1     -0.0542
     5 C         -2.246443   0.728553   8.712548 C.2        1 UNL1     0.0115
     6 C         -3.675969   0.892292   9.298182 C.3        1 UNL1     -0.0348
     7 C         -1.7595   -0.423161   9.719241 C.2        1 UNL1     0.2441
     8 O         -1.334654   -0.189339   10.842344 O.2        1 UNL1     -0.2702
     9 N         -2.096466   -1.730113   9.326203 N.am        1 UNL1     -0.2772
     10 C         -1.118258   -2.254181   8.512702 C.2        1 UNL1     0.1049
     11 C         -1.184197   -1.92336   7.235818 C.2        1 UNL1     0.0801
     12 C         1.356387   -2.576689   8.341073 C.ar        1 UNL1     0.0753
     13 C         1.259851   -2.013436   7.028809 C.ar        1 UNL1     0.0305
     14 C         -0.032773   -1.790733   6.384932 C.2        1 UNL1     0.0924
     15 N         -2.171578   -1.323807   6.548692 N.pl3        1 UNL1     -0.3170
     16 C         -1.815185   -1.349176   5.154922 C.3        1 UNL1     0.1275
     17 N         -0.306214   -1.375941   5.151196 N.2        1 UNL1     -0.2557
     18 C         -2.264009   -2.696761   4.5979 C.3        1 UNL1     0.0016
     19 C         -3.75065   -2.864242   4.868897 C.3        1 UNL1     0.0026
     20 N         -4.468535   -1.768723   4.232104 N.3        1 UNL1     -0.3018
     21 C         -4.062364   -0.42806   4.658739 C.3        1 UNL1     0.0026
     22 C         -2.566915   -0.27998   4.373084 C.3        1 UNL1     0.0016
     23 C         -5.899521   -1.991066   4.173058 C.3        1 UNL1     0.0012
     24 C         -6.230181   -3.107651   3.170233 C.3        1 UNL1     -0.0339
     25 C         -7.567537   -2.846054   2.458121 C.3        1 UNL1     -0.0615
     26 C         -5.091438   -3.271034   2.178594 C.3        1 UNL1     -0.0615
     27 C         2.591303   -2.897918   8.899562 C.ar        1 UNL1     0.1347
     28 C         3.791002   -2.738916   8.229121 C.ar        1 UNL1     0.0342
     29 C         3.675269   -2.137424   6.95791 C.ar        1 UNL1     0.1435
     30 C         2.447933   -1.777032   6.400249 C.ar        1 UNL1     0.0774
     31 O         4.740574   -2.015982   6.136093 O.3        1 UNL1     -0.4436
     32 C         4.172393   -1.823632   4.831851 C.3        1 UNL1     0.3143
     33 C         2.781088   -1.278002   5.082393 C.2        1 UNL1     0.2504
     34 C         5.121714   -3.289767   8.660247 C.3        1 UNL1     -0.0327
     35 O         4.919694   -0.782437   4.190987 O.2        1 UNL1     -0.4528
     36 C         4.78404   -1.540653   0.474161 C.3        1 UNL1     0.0854
     37 C         3.52668   -1.714348   -0.462001 C.3        1 UNL1     0.0236
     38 C         3.507097   -0.760828   -1.75125 C.3        1 UNL1     0.1131
     39 C         3.738054   0.794773   -1.580859 C.3        1 UNL1     0.0200
     40 C         2.989905   1.629694   -0.345699 C.3        1 UNL1     0.0661
     41 C         1.339372   1.564623   0.040456 C.3        1 UNL1     0.0091
     42 C         0.489101   1.714648   1.659077 C.3        1 UNL1     0.0661
     43 C         0.092466   -2.890624   9.052556 C.2        1 UNL1     0.2131
     44 O         0.013607   -3.69933   9.959481 O.2        1 UNL1     -0.2851
     45 O         2.600552   -3.399572   10.199445 O.3        1 UNL1     -0.5056
     46 O         2.108152   -0.57189   4.365165 O.2        1 UNL1     -0.2836
     47 C         0.903877   3.669664   3.426472 C.3        1 UNL1     -0.0566
     48 O         -0.524363   2.678439   1.166011 O.3        1 UNL1     -0.3909
     49 C         0.716086   0.388712   -0.678044 C.3        1 UNL1     -0.0577
     50 O         3.764803   1.578263   0.835237 O.3        1 UNL1     -0.3910
     51 O         5.638252   -0.462686   0.164743 O.3        1 UNL1     -0.3753
     52 C         2.232496   -2.033863   0.355279 C.3        1 UNL1     -0.0564
     53 O         2.509216   -1.178035   -2.791682 O.3        1 UNL1     -0.4608
     54 C         2.679846   -1.066848   -4.14684 C.2        1 UNL1     0.3042
     55 O         1.879381   -0.617324   -4.965999 O.2        1 UNL1     -0.2512
     56 C         4.035711   -1.507383   -4.620413 C.3        1 UNL1     0.0332
     57 C         5.289171   1.08363   -1.8431 C.3        1 UNL1     -0.0567
     58 C         4.050468   -3.228202   4.196363 C.3        1 UNL1     0.0210
     59 C         6.891459   -0.835803   -0.406329 C.3        1 UNL1     0.0372
     60 C         4.477333   -1.441888   1.927205 C.2        1 UNL1     -0.0208
     61 C         4.949472   -0.608976   2.855692 C.2        1 UNL1     0.0882
     62 H         1.252731   1.571415   3.671359 H        1 UNL1     0.0365
     63 H         0.571   1.237857   5.567199 H        1 UNL1     0.0576
     64 H         -2.238152   2.440121   5.967204 H        1 UNL1     0.0615
     65 H         -0.384412   0.712414   7.793823 H        1 UNL1     0.0622
     66 H         5.352363   -2.473045   0.348859 H        1 UNL1     0.0645
     67 H         3.671858   -2.706033   -0.924651 H        1 UNL1     0.0362
     68 H         4.403606   -1.133855   -2.269559 H        1 UNL1     0.0741
     69 H         3.3715   1.299892   -2.464545 H        1 UNL1     0.0359
     70 H         3.114496   2.666208   -0.713362 H        1 UNL1     0.0600
     71 H         0.965371   2.412639   -0.566133 H        1 UNL1     0.0348
     72 H         1.487155   2.154714   1.798875 H        1 UNL1     0.0602
     73 H         3.865493   -2.261685   2.211517 H        1 UNL1     0.0628
     74 H         5.533626   0.286536   2.641082 H        1 UNL1     0.1022
     75 H         -3.970628   1.969246   9.317699 H        1 UNL1     0.0279
     76 H         -4.486696   0.437808   8.733173 H        1 UNL1     0.0279
     77 H         -3.730447   0.633242   10.365714 H        1 UNL1     0.0279
     78 H         -2.962858   -1.714037   8.792176 H        1 UNL1     0.1553
     79 H         -3.122419   -1.277445   6.866 H        1 UNL1     0.1484
     80 H         -2.046519   -2.729865   3.523484 H        1 UNL1     0.0317
     81 H         -1.701553   -3.516852   5.056969 H        1 UNL1     0.0317
     82 H         -3.965945   -2.904962   5.946813 H        1 UNL1     0.0428
     83 H         -4.049342   -3.832182   4.465256 H        1 UNL1     0.0428
     84 H         -4.559626   0.376795   4.108512 H        1 UNL1     0.0428
     85 H         -4.325263   -0.235867   5.70815 H        1 UNL1     0.0428
     86 H         -2.334736   0.749848   4.57192 H        1 UNL1     0.0317
     87 H         -2.379361   -0.379225   3.296948 H        1 UNL1     0.0317
     88 H         -6.237827   -2.30462   5.169315 H        1 UNL1     0.0429
     89 H         -6.436972   -1.066135   3.927248 H        1 UNL1     0.0429
     90 H         -6.30044   -4.061971   3.705537 H        1 UNL1     0.0308
     91 H         -8.169954   -2.111293   3.000635 H        1 UNL1     0.0233
     92 H         -7.399362   -2.489807   1.439095 H        1 UNL1     0.0233
     93 H         -8.177245   -3.753249   2.368189 H        1 UNL1     0.0233
     94 H         -5.133247   -2.480242   1.421801 H        1 UNL1     0.0233
     95 H         -4.131213   -3.192074   2.695988 H        1 UNL1     0.0233
     96 H         -5.14026   -4.238322   1.670717 H        1 UNL1     0.0233
     97 H         5.551952   -3.948334   7.911639 H        1 UNL1     0.0280
     98 H         5.863571   -2.49759   8.825654 H        1 UNL1     0.0280
     99 H         4.999129   -3.861946   9.59442 H        1 UNL1     0.0280
     100 H         2.09548   -2.899042   10.815881 H        1 UNL1     0.2922
     101 H         1.947508   3.679504   3.112794 H        1 UNL1     0.0236
     102 H         0.753377   4.204827   4.363453 H        1 UNL1     0.0236
     103 H         0.378373   4.275342   2.669377 H        1 UNL1     0.0236
     104 H         -0.144003   3.574758   1.249136 H        1 UNL1     0.2098
     105 H         0.197263   0.647896   -1.597532 H        1 UNL1     0.0234
     106 H         1.390537   -0.450333   -0.848475 H        1 UNL1     0.0234
     107 H         0.0   -0.0   0.0 H        1 UNL1     0.0234
     108 H         4.453429   2.266731   0.760569 H        1 UNL1     0.2098
     109 H         2.321012   -2.969007   0.925702 H        1 UNL1     0.0234
     110 H         1.936343   -1.221298   1.027422 H        1 UNL1     0.0234
     111 H         1.362068   -2.167187   -0.300865 H        1 UNL1     0.0234
     112 H         4.533639   -0.683947   -5.14134 H        1 UNL1     0.0342
     113 H         4.651989   -1.883515   -3.805201 H        1 UNL1     0.0342
     114 H         3.898493   -2.32678   -5.339388 H        1 UNL1     0.0342
     115 H         5.820551   1.334418   -0.914699 H        1 UNL1     0.0234
     116 H         5.821985   0.254364   -2.31265 H        1 UNL1     0.0234
     117 H         5.47217   1.990385   -2.44497 H        1 UNL1     0.0234
     118 H         4.759488   -3.368613   3.361748 H        1 UNL1     0.0309
     119 H         4.182725   -4.039671   4.919017 H        1 UNL1     0.0309
     120 H         3.073847   -3.394705   3.728822 H        1 UNL1     0.0309
     121 H         7.585099   -1.021307   0.41331 H        1 UNL1     0.0524
     122 H         6.821737   -1.763383   -0.998589 H        1 UNL1     0.0524
     123 H         7.266933   -0.038954   -1.042053 H        1 UNL1     0.0524
@<TRIPOS>BOND
     1     1     2    1
     2     1    42    1
     3     2     3    2
     4     3     4    1
     5     4     5    2
     6     5     7    1
     7     6    75    1
     8     6    76    1
     9     6    77    1
    10     7     9   am
    11     9    10    1
    12    10    11    2
    13    10    43    1
    14    11    14    1
    15    11    15    1
    16    12    13   ar
    17    12    27   ar
    18    12    43    1
    19    13    14    1
    20    13    30   ar
    21    14    17    2
    22    15    16    1
    23    16    17    1
    24    16    18    1
    25    16    22    1
    26    18    19    1
    27    19    20    1
    28    20    21    1
    29    21    22    1
    30    23    24    1
    31    23    88    1
    32    23    89    1
    33    24    25    1
    34    24    26    1
    35    24    90    1
    36    25    91    1
    37    25    92    1
    38    25    93    1
    39    26    94    1
    40    26    95    1
    41    26    96    1
    42    27    28   ar
    43    28    29   ar
    44    29    30   ar
    45    29    31    1
    46    30    33    1
    47    31    32    1
    48    32    33    1
    49    32    35    1
    50    34    97    1
    51    34    98    1
    52    34    99    1
    53    35    61    1
    54    36    37    1
    55    36    60    1
    56    37    38    1
    57    38    39    1
    58    39    40    1
    59    40    41    1
    60    41    42    1
    61    45   100    1
    62    47   101    1
    63    47   102    1
    64    47   103    1
    65    48   104    1
    66    49   105    1
    67    49   106    1
    68    49   107    1
    69    50   108    1
    70    51    59    1
    71    52   109    1
    72    52   110    1
    73    52   111    1
    74    53    54    1
    75    54    55    2
    76    54    56    1
    77    56   112    1
    78    56   113    1
    79    56   114    1
    80    57   115    1
    81    57   116    1
    82    57   117    1
    83    58   118    1
    84    58   119    1
    85    58   120    1
    86    59   121    1
    87    59   122    1
    88    59   123    1
    89    60    61    2
    90     1    47    1
    91     1    62    1
    92     2    63    1
    93     3    64    1
    94     4    65    1
    95     5     6    1
    96     7     8    2
    97     9    78    1
    98    15    79    1
    99    18    80    1
   100    18    81    1
   101    19    82    1
   102    19    83    1
   103    20    23    1
   104    21    84    1
   105    21    85    1
   106    22    86    1
   107    22    87    1
   108    27    45    1
   109    28    34    1
   110    32    58    1
   111    33    46    2
   112    36    51    1
   113    36    66    1
   114    37    52    1
   115    37    67    1
   116    38    53    1
   117    38    68    1
   118    42    48    1
   119    42    72    1
   120    43    44    2
   121    60    73    1
   122    61    74    1
   123    39    69    1
   124    39    57    1
   125    40    70    1
   126    40    50    1
   127    41    71    1
   128    41    49    1
