@<TRIPOS>MOLECULE
*****
 123 128 0 0 0
SMALL
GASTEIGER

@<TRIPOS>ATOM
     1 C         5.16689   1.749116   0.493066 C.3        1 UNL1     0.0009
     2 C         6.604019   2.554773   -0.357001 C.2        1 UNL1     -0.0787
     3 C         7.88625   2.456235   -1.021997 C.2        1 UNL1     -0.0649
     4 C         8.764085   3.690953   -1.777797 C.2        1 UNL1     -0.0542
     5 C         9.784604   3.983094   -2.716025 C.2        1 UNL1     0.0115
     6 C         10.913266   3.357187   -3.580713 C.3        1 UNL1     -0.0348
     7 C         9.880248   5.466018   -3.323295 C.2        1 UNL1     0.2441
     8 O         10.703923   6.287882   -2.945637 O.2        1 UNL1     -0.2702
     9 N         9.130643   5.672334   -4.494482 N.am        1 UNL1     -0.2772
     10 C         7.847758   6.059174   -4.181617 C.2        1 UNL1     0.1049
     11 C         7.001828   5.087913   -3.889597 C.2        1 UNL1     0.0801
     12 C         6.548604   7.666587   -2.772449 C.ar        1 UNL1     0.0753
     13 C         5.789321   6.538909   -2.324741 C.ar        1 UNL1     0.0305
     14 C         5.906607   5.232855   -2.969348 C.2        1 UNL1     0.0924
     15 N         7.124546   3.758849   -4.047891 N.pl3        1 UNL1     -0.3170
     16 C         5.854527   3.159838   -3.734056 C.3        1 UNL1     0.1275
     17 N         5.217599   4.115605   -2.754997 N.2        1 UNL1     -0.2557
     18 C         5.002346   3.218205   -4.99821 C.3        1 UNL1     0.0016
     19 C         5.75783   2.5335   -6.126045 C.3        1 UNL1     0.0026
     20 N         6.027782   1.155614   -5.739285 N.3        1 UNL1     -0.3018
     21 C         6.790486   0.995909   -4.499468 C.3        1 UNL1     0.0026
     22 C         6.011141   1.687038   -3.379264 C.3        1 UNL1     0.0016
     23 C         6.472883   0.33547   -6.848291 C.3        1 UNL1     0.0012
     24 C         5.31796   0.085443   -7.830836 C.3        1 UNL1     -0.0339
     25 C         5.34412   1.08798   -8.996293 C.3        1 UNL1     -0.0615
     26 C         5.357631   -1.349537   -8.32686 C.3        1 UNL1     -0.0615
     27 C         6.343646   8.934575   -2.233639 C.ar        1 UNL1     0.1347
     28 C         5.384079   9.204643   -1.274294 C.ar        1 UNL1     0.0342
     29 C         4.682285   8.070439   -0.813606 C.ar        1 UNL1     0.1435
     30 C         4.902008   6.788136   -1.318224 C.ar        1 UNL1     0.0774
     31 O         3.640844   8.184467   0.039274 O.3        1 UNL1     -0.4436
     32 C         2.919253   6.951561   -0.102584 C.3        1 UNL1     0.3143
     33 C         3.93284   5.958172   -0.633652 C.2        1 UNL1     0.2504
     34 C         4.936995   10.570986   -0.834609 C.3        1 UNL1     -0.0327
     35 O         2.557931   6.515587   1.213708 O.2        1 UNL1     -0.4528
     36 C         -0.684888   4.583148   0.81635 C.3        1 UNL1     0.0854
     37 C         -0.989713   3.322062   -0.080459 C.3        1 UNL1     0.0236
     38 C         -1.590667   2.06145   0.707866 C.3        1 UNL1     0.1131
     39 C         -0.865582   1.531248   2.009944 C.3        1 UNL1     0.0200
     40 C         0.79559   1.385743   2.052059 C.3        1 UNL1     0.0661
     41 C         1.755575   0.61627   0.884176 C.3        1 UNL1     0.0091
     42 C         3.463452   0.978529   0.320858 C.3        1 UNL1     0.0661
     43 C         7.499231   7.458268   -3.892792 C.2        1 UNL1     0.2131
     44 O         7.89948   8.355948   -4.611618 O.2        1 UNL1     -0.2851
     45 O         7.156142   9.969434   -2.692286 O.3        1 UNL1     -0.5056
     46 O         3.948772   4.754711   -0.502192 O.2        1 UNL1     -0.2836
     47 C         5.562509   1.32045   1.931715 C.3        1 UNL1     -0.0566
     48 O         3.911986   -0.432526   0.403669 O.3        1 UNL1     -0.3909
     49 C         0.922033   0.382976   -0.356097 C.3        1 UNL1     -0.0577
     50 O         1.395574   2.603831   2.44449 O.3        1 UNL1     -0.3910
     51 O         -0.809696   4.394255   2.207815 O.3        1 UNL1     -0.3753
     52 C         0.055341   3.160951   -1.232352 C.3        1 UNL1     -0.0564
     53 O         -2.192795   1.021955   -0.191698 O.3        1 UNL1     -0.4608
     54 C         -2.415265   -0.287848   0.144238 C.2        1 UNL1     0.3042
     55 O         -1.842727   -1.281071   -0.30247 O.2        1 UNL1     -0.2512
     56 C         -3.445387   -0.465371   1.223148 C.3        1 UNL1     0.0332
     57 C         -1.587267   2.200948   3.270439 C.3        1 UNL1     -0.0567
     58 C         1.844616   7.19603   -1.187444 C.3        1 UNL1     0.0210
     59 C         -1.154204   5.567308   2.943429 C.3        1 UNL1     0.0372
     60 C         0.644222   5.212111   0.586064 C.2        1 UNL1     -0.0208
     61 C         1.556706   5.647844   1.455693 C.2        1 UNL1     0.0882
     62 H         4.690918   2.733334   0.579531 H        1 UNL1     0.0365
     63 H         6.33771   3.60863   -0.252432 H        1 UNL1     0.0576
     64 H         8.344025   1.489263   -1.24226 H        1 UNL1     0.0615
     65 H         8.276818   4.606543   -1.431749 H        1 UNL1     0.0622
     66 H         -1.429384   5.329494   0.50532 H        1 UNL1     0.0645
     67 H         -1.854949   3.631074   -0.692373 H        1 UNL1     0.0362
     68 H         -2.53792   2.49852   1.058869 H        1 UNL1     0.0741
     69 H         -1.197199   0.52026   2.205751 H        1 UNL1     0.0359
     70 H         0.906917   0.725915   2.933702 H        1 UNL1     0.0600
     71 H         1.798945   -0.404651   1.311722 H        1 UNL1     0.0348
     72 H         3.357066   1.467292   1.300199 H        1 UNL1     0.0602
     73 H         0.762647   5.40877   -0.450541 H        1 UNL1     0.0628
     74 H         1.538614   5.43779   2.525641 H        1 UNL1     0.1022
     75 H         10.957675   2.251996   -3.427042 H        1 UNL1     0.0279
     76 H         10.800184   3.439359   -4.659383 H        1 UNL1     0.0279
     77 H         11.918172   3.662084   -3.253753 H        1 UNL1     0.0279
     78 H         9.068915   4.802085   -5.018823 H        1 UNL1     0.1553
     79 H         7.790134   3.330509   -4.664697 H        1 UNL1     0.1484
     80 H         4.040968   2.727377   -4.804284 H        1 UNL1     0.0317
     81 H         4.77587   4.254802   -5.269922 H        1 UNL1     0.0317
     82 H         6.688617   3.064665   -6.373861 H        1 UNL1     0.0428
     83 H         5.133132   2.588129   -7.018131 H        1 UNL1     0.0428
     84 H         6.910653   -0.046865   -4.18964 H        1 UNL1     0.0428
     85 H         7.820629   1.363888   -4.602972 H        1 UNL1     0.0428
     86 H         6.527103   1.437198   -2.470775 H        1 UNL1     0.0317
     87 H         5.031635   1.209468   -3.254399 H        1 UNL1     0.0317
     88 H         7.269212   0.876969   -7.375486 H        1 UNL1     0.0429
     89 H         6.905305   -0.610098   -6.496601 H        1 UNL1     0.0429
     90 H         4.364827   0.192451   -7.299516 H        1 UNL1     0.0308
     91 H         6.293316   1.042766   -9.53859 H        1 UNL1     0.0233
     92 H         4.524196   0.893475   -9.691636 H        1 UNL1     0.0233
     93 H         5.219589   2.124046   -8.658812 H        1 UNL1     0.0233
     94 H         4.661778   -1.4796   -9.162748 H        1 UNL1     0.0233
     95 H         6.362186   -1.594012   -8.68332 H        1 UNL1     0.0233
     96 H         5.082862   -2.052921   -7.535835 H        1 UNL1     0.0233
     97 H         4.14328   10.521628   -0.095143 H        1 UNL1     0.0280
     98 H         5.749504   11.141305   -0.365757 H        1 UNL1     0.0280
     99 H         4.563756   11.135014   -1.705045 H        1 UNL1     0.0280
     100 H         6.689266   10.719593   -3.016186 H        1 UNL1     0.2922
     101 H         4.699442   0.887096   2.436667 H        1 UNL1     0.0236
     102 H         6.01299   2.126133   2.510443 H        1 UNL1     0.0236
     103 H         6.318765   0.517785   1.931464 H        1 UNL1     0.0236
     104 H         4.331076   -0.558006   1.277504 H        1 UNL1     0.2098
     105 H         0.709671   1.281473   -0.930044 H        1 UNL1     0.0234
     106 H         1.291761   -0.405423   -1.011578 H        1 UNL1     0.0234
     107 H         0.0   -0.0   0.0 H        1 UNL1     0.0234
     108 H         1.197372   3.261679   1.75043 H        1 UNL1     0.2098
     109 H         1.079983   3.047704   -0.851571 H        1 UNL1     0.0234
     110 H         -0.17675   2.333454   -1.911415 H        1 UNL1     0.0234
     111 H         0.076857   4.043385   -1.885645 H        1 UNL1     0.0234
     112 H         -3.570834   -1.529193   1.446513 H        1 UNL1     0.0342
     113 H         -3.197315   0.096108   2.122617 H        1 UNL1     0.0342
     114 H         -4.405054   -0.084735   0.847222 H        1 UNL1     0.0342
     115 H         -2.651453   1.932542   3.32197 H        1 UNL1     0.0234
     116 H         -1.13621   1.940966   4.230129 H        1 UNL1     0.0234
     117 H         -1.647715   3.301207   3.209466 H        1 UNL1     0.0234
     118 H         0.943329   7.683167   -0.77588 H        1 UNL1     0.0309
     119 H         2.214409   7.783525   -2.033793 H        1 UNL1     0.0309
     120 H         1.456269   6.26382   -1.612035 H        1 UNL1     0.0309
     121 H         -0.34991   6.289793   2.807473 H        1 UNL1     0.0524
     122 H         -2.084183   6.032935   2.576867 H        1 UNL1     0.0524
     123 H         -1.270421   5.329625   3.997039 H        1 UNL1     0.0524
@<TRIPOS>BOND
     1     1     2    1
     2     1    42    1
     3     2     3    2
     4     3     4    1
     5     4     5    2
     6     5     7    1
     7     6    75    1
     8     6    76    1
     9     6    77    1
    10     7     9   am
    11     9    10    1
    12    10    11    2
    13    10    43    1
    14    11    14    1
    15    11    15    1
    16    12    13   ar
    17    12    27   ar
    18    12    43    1
    19    13    14    1
    20    13    30   ar
    21    14    17    2
    22    15    16    1
    23    16    17    1
    24    16    18    1
    25    16    22    1
    26    18    19    1
    27    19    20    1
    28    20    21    1
    29    21    22    1
    30    23    24    1
    31    23    88    1
    32    23    89    1
    33    24    25    1
    34    24    26    1
    35    24    90    1
    36    25    91    1
    37    25    92    1
    38    25    93    1
    39    26    94    1
    40    26    95    1
    41    26    96    1
    42    27    28   ar
    43    28    29   ar
    44    29    30   ar
    45    29    31    1
    46    30    33    1
    47    31    32    1
    48    32    33    1
    49    32    35    1
    50    34    97    1
    51    34    98    1
    52    34    99    1
    53    35    61    1
    54    36    37    1
    55    36    60    1
    56    37    38    1
    57    38    39    1
    58    39    40    1
    59    40    41    1
    60    41    42    1
    61    45   100    1
    62    47   101    1
    63    47   102    1
    64    47   103    1
    65    48   104    1
    66    49   105    1
    67    49   106    1
    68    49   107    1
    69    50   108    1
    70    51    59    1
    71    52   109    1
    72    52   110    1
    73    52   111    1
    74    53    54    1
    75    54    55    2
    76    54    56    1
    77    56   112    1
    78    56   113    1
    79    56   114    1
    80    57   115    1
    81    57   116    1
    82    57   117    1
    83    58   118    1
    84    58   119    1
    85    58   120    1
    86    59   121    1
    87    59   122    1
    88    59   123    1
    89    60    61    2
    90     1    47    1
    91     1    62    1
    92     2    63    1
    93     3    64    1
    94     4    65    1
    95     5     6    1
    96     7     8    2
    97     9    78    1
    98    15    79    1
    99    18    80    1
   100    18    81    1
   101    19    82    1
   102    19    83    1
   103    20    23    1
   104    21    84    1
   105    21    85    1
   106    22    86    1
   107    22    87    1
   108    27    45    1
   109    28    34    1
   110    32    58    1
   111    33    46    2
   112    36    51    1
   113    36    66    1
   114    37    52    1
   115    37    67    1
   116    38    53    1
   117    38    68    1
   118    42    48    1
   119    42    72    1
   120    43    44    2
   121    60    73    1
   122    61    74    1
   123    39    69    1
   124    39    57    1
   125    40    70    1
   126    40    50    1
   127    41    71    1
   128    41    49    1
