@<TRIPOS>MOLECULE
*****
 123 128 0 0 0
SMALL
GASTEIGER

@<TRIPOS>ATOM
     1 C         5.166593   1.759621   0.457512 C.3        1 UNL1     0.0009
     2 C         6.596036   2.56863   -0.402276 C.2        1 UNL1     -0.0787
     3 C         7.873761   2.473043   -1.076315 C.2        1 UNL1     -0.0649
     4 C         8.743698   3.709909   -1.837713 C.2        1 UNL1     -0.0542
     5 C         9.756987   4.004576   -2.782962 C.2        1 UNL1     0.0115
     6 C         10.880835   3.38139   -3.655845 C.3        1 UNL1     -0.0348
     7 C         9.845285   5.48796   -3.390221 C.2        1 UNL1     0.2441
     8 O         10.66989   6.311367   -3.017994 O.2        1 UNL1     -0.2702
     9 N         9.087037   5.69323   -4.556015 N.am        1 UNL1     -0.2772
     10 C         7.805585   6.07727   -4.233965 C.2        1 UNL1     0.1049
     11 C         6.963744   5.104128   -3.936441 C.2        1 UNL1     0.0801
     12 C         6.513044   7.681369   -2.814973 C.ar        1 UNL1     0.0753
     13 C         5.759267   6.551923   -2.362445 C.ar        1 UNL1     0.0305
     14 C         5.874723   5.246396   -3.008448 C.2        1 UNL1     0.0924
     15 N         7.0881   3.775391   -4.096192 N.pl3        1 UNL1     -0.3170
     16 C         5.821563   3.173609   -3.773705 C.3        1 UNL1     0.1275
     17 N         5.189557   4.127625   -2.789761 N.2        1 UNL1     -0.2557
     18 C         4.960394   3.230757   -5.031809 C.3        1 UNL1     0.0016
     19 C         5.709346   2.548114   -6.165236 C.3        1 UNL1     0.0026
     20 N         5.984866   1.170622   -5.781005 N.3        1 UNL1     -0.3018
     21 C         6.756599   1.011961   -4.546653 C.3        1 UNL1     0.0026
     22 C         5.98372   1.700982   -3.420686 C.3        1 UNL1     0.0016
     23 C         6.423857   0.351887   -6.893482 C.3        1 UNL1     0.0012
     24 C         5.262573   0.099891   -7.867994 C.3        1 UNL1     -0.0339
     25 C         5.328348   1.046321   -9.077952 C.3        1 UNL1     -0.0615
     26 C         5.250127   -1.356796   -8.297748 C.3        1 UNL1     -0.0615
     27 C         6.309253   8.948695   -2.274165 C.ar        1 UNL1     0.1347
     28 C         5.355897   9.216352   -1.307975 C.ar        1 UNL1     0.0342
     29 C         4.659713   8.080494   -0.842874 C.ar        1 UNL1     0.1435
     30 C         4.878538   6.798869   -1.349603 C.ar        1 UNL1     0.0774
     31 O         3.624061   8.191988   0.017358 O.3        1 UNL1     -0.4436
     32 C         2.904047   6.957649   -0.119978 C.3        1 UNL1     0.3143
     33 C         3.91593   5.966597   -0.658607 C.2        1 UNL1     0.2504
     34 C         4.909086   10.581572   -0.864542 C.3        1 UNL1     -0.0327
     35 O         2.552894   6.520352   1.198625 O.2        1 UNL1     -0.4528
     36 C         -0.688627   4.58136   0.823209 C.3        1 UNL1     0.0854
     37 C         -0.997136   3.320035   -0.072003 C.3        1 UNL1     0.0236
     38 C         -1.589918   2.057836   0.719961 C.3        1 UNL1     0.1131
     39 C         -0.854598   1.528573   2.01667 C.3        1 UNL1     0.0200
     40 C         0.807127   1.386497   2.047038 C.3        1 UNL1     0.0661
     41 C         1.760468   0.619528   0.872088 C.3        1 UNL1     0.0091
     42 C         3.463587   0.985576   0.296939 C.3        1 UNL1     0.0661
     43 C         7.456199   7.475511   -3.942066 C.2        1 UNL1     0.2131
     44 O         7.849521   8.374333   -4.663284 O.2        1 UNL1     -0.2851
     45 O         7.116356   9.985437   -2.738047 O.3        1 UNL1     -0.5056
     46 O         3.93528   4.763115   -0.527804 O.2        1 UNL1     -0.2836
     47 C         5.573207   1.33115   1.893151 C.3        1 UNL1     -0.0566
     48 O         3.915615   -0.424581   0.375959 O.3        1 UNL1     -0.3909
     49 C         0.91871   0.385044   -0.362398 C.3        1 UNL1     -0.0577
     50 O         1.40733   2.605657   2.435789 O.3        1 UNL1     -0.3910
     51 O         -0.803255   4.391603   2.215431 O.3        1 UNL1     -0.3753
     52 C         0.040122   3.161595   -1.231287 C.3        1 UNL1     -0.0564
     53 O         -2.196202   1.017485   -0.175816 O.3        1 UNL1     -0.4608
     54 C         -2.42567   -0.289709   0.165531 C.2        1 UNL1     0.3042
     55 O         -1.856329   -1.287604   -0.274805 O.2        1 UNL1     -0.2512
     56 C         -3.459853   -0.457501   1.242112 C.3        1 UNL1     0.0332
     57 C         -1.568788   2.196225   3.282509 C.3        1 UNL1     -0.0567
     58 C         1.821304   7.20036   -1.197145 C.3        1 UNL1     0.0210
     59 C         -1.114081   5.570049   2.957401 C.3        1 UNL1     0.0372
     60 C         0.637525   5.213181   0.583866 C.2        1 UNL1     -0.0208
     61 C         1.555196   5.650428   1.447254 C.2        1 UNL1     0.0882
     62 H         4.689203   2.742812   0.547764 H        1 UNL1     0.0365
     63 H         6.328286   3.621886   -0.295362 H        1 UNL1     0.0576
     64 H         8.331978   1.507119   -1.300226 H        1 UNL1     0.0615
     65 H         8.25698   4.624335   -1.487835 H        1 UNL1     0.0622
     66 H         -1.436837   5.326295   0.517757 H        1 UNL1     0.0645
     67 H         -1.867293   3.627517   -0.677678 H        1 UNL1     0.0362
     68 H         -2.535584   2.492786   1.077812 H        1 UNL1     0.0741
     69 H         -1.182734   0.516813   2.214349 H        1 UNL1     0.0359
     70 H         0.926019   0.726518   2.927579 H        1 UNL1     0.0600
     71 H         1.808959   -0.401488   1.298858 H        1 UNL1     0.0348
     72 H         3.363078   1.47369   1.277223 H        1 UNL1     0.0602
     73 H         0.748249   5.410537   -0.453457 H        1 UNL1     0.0628
     74 H         1.545064   5.439871   2.517208 H        1 UNL1     0.1022
     75 H         10.909868   2.272794   -3.524673 H        1 UNL1     0.0279
     76 H         10.773395   3.487091   -4.733042 H        1 UNL1     0.0279
     77 H         11.888331   3.666042   -3.31876 H        1 UNL1     0.0279
     78 H         9.023427   4.823083   -5.080301 H        1 UNL1     0.1553
     79 H         7.75022   3.348701   -4.717856 H        1 UNL1     0.1484
     80 H         4.001423   2.737851   -4.83135 H        1 UNL1     0.0317
     81 H         4.729866   4.267   -5.301456 H        1 UNL1     0.0317
     82 H         6.637264   3.081317   -6.419351 H        1 UNL1     0.0428
     83 H         5.078279   2.601834   -7.052884 H        1 UNL1     0.0428
     84 H         6.881103   -0.030696   -4.238147 H        1 UNL1     0.0428
     85 H         7.785224   1.382122   -4.657232 H        1 UNL1     0.0428
     86 H         6.506574   1.451818   -2.51596 H        1 UNL1     0.0317
     87 H         5.006108   1.221326   -3.289152 H        1 UNL1     0.0317
     88 H         7.215335   0.895267   -7.426019 H        1 UNL1     0.0429
     89 H         6.860699   -0.592935   -6.545266 H        1 UNL1     0.0429
     90 H         4.312921   0.266235   -7.345783 H        1 UNL1     0.0308
     91 H         6.280135   0.947977   -9.608548 H        1 UNL1     0.0233
     92 H         4.50863   0.844321   -9.771399 H        1 UNL1     0.0233
     93 H         5.232286   2.100105   -8.789598 H        1 UNL1     0.0233
     94 H         4.562249   -1.496644   -9.138642 H        1 UNL1     0.0233
     95 H         6.248957   -1.658187   -8.625565 H        1 UNL1     0.0233
     96 H         4.93439   -2.011275   -7.480474 H        1 UNL1     0.0233
     97 H         4.114357   10.530366   -0.126292 H        1 UNL1     0.0280
     98 H         5.721328   11.149885   -0.392801 H        1 UNL1     0.0280
     99 H         4.537359   11.1486   -1.733676 H        1 UNL1     0.0280
     100 H         6.645898   10.739704   -3.046871 H        1 UNL1     0.2922
     101 H         4.711474   0.907197   2.408258 H        1 UNL1     0.0236
     102 H         6.037151   2.134157   2.464921 H        1 UNL1     0.0236
     103 H         6.321944   0.521489   1.887259 H        1 UNL1     0.0236
     104 H         4.335738   -0.551158   1.24914 H        1 UNL1     0.2098
     105 H         0.700456   1.283348   -0.934434 H        1 UNL1     0.0234
     106 H         1.285453   -0.402301   -1.020817 H        1 UNL1     0.0234
     107 H         0.0   -0.0   0.0 H        1 UNL1     0.0234
     108 H         1.217868   3.258761   1.734841 H        1 UNL1     0.2098
     109 H         1.06907   3.062704   -0.858194 H        1 UNL1     0.0234
     110 H         -0.188296   2.326317   -1.902018 H        1 UNL1     0.0234
     111 H         0.046391   4.039109   -1.891497 H        1 UNL1     0.0234
     112 H         -3.579424   -1.518585   1.481173 H        1 UNL1     0.0342
     113 H         -3.219845   0.119315   2.134032 H        1 UNL1     0.0342
     114 H         -4.420147   -0.089024   0.855814 H        1 UNL1     0.0342
     115 H         -2.640218   1.95589   3.320797 H        1 UNL1     0.0234
     116 H         -1.133152   1.907994   4.241255 H        1 UNL1     0.0234
     117 H         -1.599064   3.298588   3.239845 H        1 UNL1     0.0234
     118 H         0.920075   7.681212   -0.778129 H        1 UNL1     0.0309
     119 H         2.182637   7.79288   -2.043644 H        1 UNL1     0.0309
     120 H         1.435209   6.267654   -1.6227 H        1 UNL1     0.0309
     121 H         -0.278192   6.260086   2.845618 H        1 UNL1     0.0524
     122 H         -2.016534   6.077545   2.577844 H        1 UNL1     0.0524
     123 H         -1.261259   5.326252   4.005731 H        1 UNL1     0.0524
@<TRIPOS>BOND
     1     1     2    1
     2     1    42    1
     3     2     3    2
     4     3     4    1
     5     4     5    2
     6     5     7    1
     7     6    75    1
     8     6    76    1
     9     6    77    1
    10     7     9   am
    11     9    10    1
    12    10    11    2
    13    10    43    1
    14    11    14    1
    15    11    15    1
    16    12    13   ar
    17    12    27   ar
    18    12    43    1
    19    13    14    1
    20    13    30   ar
    21    14    17    2
    22    15    16    1
    23    16    17    1
    24    16    18    1
    25    16    22    1
    26    18    19    1
    27    19    20    1
    28    20    21    1
    29    21    22    1
    30    23    24    1
    31    23    88    1
    32    23    89    1
    33    24    25    1
    34    24    26    1
    35    24    90    1
    36    25    91    1
    37    25    92    1
    38    25    93    1
    39    26    94    1
    40    26    95    1
    41    26    96    1
    42    27    28   ar
    43    28    29   ar
    44    29    30   ar
    45    29    31    1
    46    30    33    1
    47    31    32    1
    48    32    33    1
    49    32    35    1
    50    34    97    1
    51    34    98    1
    52    34    99    1
    53    35    61    1
    54    36    37    1
    55    36    60    1
    56    37    38    1
    57    38    39    1
    58    39    40    1
    59    40    41    1
    60    41    42    1
    61    45   100    1
    62    47   101    1
    63    47   102    1
    64    47   103    1
    65    48   104    1
    66    49   105    1
    67    49   106    1
    68    49   107    1
    69    50   108    1
    70    51    59    1
    71    52   109    1
    72    52   110    1
    73    52   111    1
    74    53    54    1
    75    54    55    2
    76    54    56    1
    77    56   112    1
    78    56   113    1
    79    56   114    1
    80    57   115    1
    81    57   116    1
    82    57   117    1
    83    58   118    1
    84    58   119    1
    85    58   120    1
    86    59   121    1
    87    59   122    1
    88    59   123    1
    89    60    61    2
    90     1    47    1
    91     1    62    1
    92     2    63    1
    93     3    64    1
    94     4    65    1
    95     5     6    1
    96     7     8    2
    97     9    78    1
    98    15    79    1
    99    18    80    1
   100    18    81    1
   101    19    82    1
   102    19    83    1
   103    20    23    1
   104    21    84    1
   105    21    85    1
   106    22    86    1
   107    22    87    1
   108    27    45    1
   109    28    34    1
   110    32    58    1
   111    33    46    2
   112    36    51    1
   113    36    66    1
   114    37    52    1
   115    37    67    1
   116    38    53    1
   117    38    68    1
   118    42    48    1
   119    42    72    1
   120    43    44    2
   121    60    73    1
   122    61    74    1
   123    39    69    1
   124    39    57    1
   125    40    70    1
   126    40    50    1
   127    41    71    1
   128    41    49    1
