@<TRIPOS>MOLECULE
*****
 123 128 0 0 0
SMALL
GASTEIGER

@<TRIPOS>ATOM
     1 C         1.656419   -3.265823   -3.22233 C.3        1 UNL1     0.0009
     2 C         1.871285   -5.098606   -3.400588 C.2        1 UNL1     -0.0787
     3 C         2.620187   -6.307689   -3.129827 C.2        1 UNL1     -0.0649
     4 C         2.197812   -7.901439   -3.514426 C.2        1 UNL1     -0.0542
     5 C         2.426691   -9.267394   -3.216333 C.2        1 UNL1     0.0115
     6 C         3.346905   -10.246296   -2.436409 C.3        1 UNL1     -0.0348
     7 C         1.345617   -10.35691   -3.686678 C.2        1 UNL1     0.2441
     8 O         1.50639   -11.074989   -4.66394 O.2        1 UNL1     -0.2702
     9 N         0.324297   -10.613342   -2.755389 N.am        1 UNL1     -0.2772
     10 C         -0.721327   -9.737352   -2.93604 C.2        1 UNL1     0.1049
     11 C         -0.591836   -8.551612   -2.369052 C.2        1 UNL1     0.0801
     12 C         -2.224176   -8.777232   -4.690162 C.ar        1 UNL1     0.0753
     13 C         -1.884649   -7.489775   -4.165012 C.ar        1 UNL1     0.0305
     14 C         -1.160706   -7.344363   -2.904135 C.2        1 UNL1     0.0924
     15 N         0.302714   -8.120238   -1.46339 N.pl3        1 UNL1     -0.3170
     16 C         -0.096812   -6.80314   -1.044001 C.3        1 UNL1     0.1275
     17 N         -0.851888   -6.243423   -2.224806 N.2        1 UNL1     -0.2557
     18 C         -1.123051   -6.975735   0.071681 C.3        1 UNL1     0.0016
     19 C         -0.506991   -7.825044   1.172015 C.3        1 UNL1     0.0026
     20 N         0.691956   -7.158685   1.661422 N.3        1 UNL1     -0.3018
     21 C         1.713734   -6.893008   0.646653 C.3        1 UNL1     0.0026
     22 C         1.074522   -6.034776   -0.446388 C.3        1 UNL1     0.0016
     23 C         1.185216   -7.724318   2.90134 C.3        1 UNL1     0.0012
     24 C         2.713005   -7.582445   2.987877 C.3        1 UNL1     -0.0339
     25 C         3.232438   -7.939796   4.390213 C.3        1 UNL1     -0.0615
     26 C         3.376142   -8.427376   1.914041 C.3        1 UNL1     -0.0615
     27 C         -3.01765   -8.90639   -5.827631 C.ar        1 UNL1     0.1347
     28 C         -3.560652   -7.826002   -6.499913 C.ar        1 UNL1     0.0342
     29 C         -3.172813   -6.567226   -5.993722 C.ar        1 UNL1     0.1435
     30 C         -2.349126   -6.421962   -4.876737 C.ar        1 UNL1     0.0774
     31 O         -3.705308   -5.421146   -6.471168 O.3        1 UNL1     -0.4436
     32 C         -3.455778   -4.449814   -5.443976 C.3        1 UNL1     0.3143
     33 C         -2.27408   -4.991438   -4.665229 C.2        1 UNL1     0.2504
     34 C         -4.617269   -7.89218   -7.567284 C.3        1 UNL1     -0.0327
     35 O         -3.014496   -3.2497   -6.090697 O.2        1 UNL1     -0.4528
     36 C         -4.148892   -0.391144   -3.865862 C.3        1 UNL1     0.0854
     37 C         -3.826793   -0.123863   -2.345226 C.3        1 UNL1     0.0236
     38 C         -3.184688   1.31201   -2.032631 C.3        1 UNL1     0.1131
     39 C         -1.930324   1.807874   -2.859044 C.3        1 UNL1     0.0200
     40 C         -0.666207   0.768341   -3.181253 C.3        1 UNL1     0.0661
     41 C         0.134526   -0.204438   -2.045411 C.3        1 UNL1     0.0091
     42 C         0.913987   -1.854709   -2.231011 C.3        1 UNL1     0.0661
     43 C         -1.777596   -9.972102   -3.931801 C.2        1 UNL1     0.2131
     44 O         -2.303326   -11.066139   -4.028901 O.2        1 UNL1     -0.2851
     45 O         -3.263576   -10.194023   -6.299817 O.3        1 UNL1     -0.5056
     46 O         -1.4445   -4.37833   -4.031391 O.2        1 UNL1     -0.2836
     47 C         2.658404   -2.513715   -4.13903 C.3        1 UNL1     -0.0566
     48 O         2.163762   -1.469198   -1.532041 O.3        1 UNL1     -0.3909
     49 C         -0.682863   -0.243078   -0.773454 C.3        1 UNL1     -0.0577
     50 O         -0.912565   0.03033   -4.361241 O.3        1 UNL1     -0.3910
     51 O         -3.679003   0.578625   -4.774809 O.3        1 UNL1     -0.3753
     52 C         -3.354801   -1.422592   -1.613464 C.3        1 UNL1     -0.0564
     53 O         -3.213656   1.678963   -0.577697 O.3        1 UNL1     -0.4608
     54 C         -3.542569   2.910519   -0.07469 C.2        1 UNL1     0.3042
     55 O         -4.415972   3.170689   0.751941 O.2        1 UNL1     -0.2512
     56 C         -2.668874   4.021202   -0.58435 C.3        1 UNL1     0.0332
     57 C         -2.471699   2.717183   -4.058312 C.3        1 UNL1     -0.0567
     58 C         -4.701145   -4.452974   -4.527145 C.3        1 UNL1     0.0210
     59 C         -4.692136   1.404222   -5.347361 C.3        1 UNL1     0.0372
     60 C         -3.701454   -1.714129   -4.380324 C.2        1 UNL1     -0.0208
     61 C         -3.075669   -2.034221   -5.513761 C.2        1 UNL1     0.0882
     62 H         0.716154   -3.340964   -3.781764 H        1 UNL1     0.0365
     63 H         1.037717   -5.337717   -4.06426 H        1 UNL1     0.0576
     64 H         3.494829   -6.304838   -2.475533 H        1 UNL1     0.0615
     65 H         1.375125   -7.788603   -4.225719 H        1 UNL1     0.0622
     66 H         -5.246724   -0.403394   -3.917451 H        1 UNL1     0.0645
     67 H         -4.820228   -0.027386   -1.873698 H        1 UNL1     0.0362
     68 H         -4.017084   1.958686   -2.34957 H        1 UNL1     0.0741
     69 H         -1.447029   2.606623   -2.312387 H        1 UNL1     0.0359
     70 H         0.113051   1.49944   -3.469888 H        1 UNL1     0.0600
     71 H         0.957819   0.476782   -1.753715 H        1 UNL1     0.0348
     72 H         0.830181   -1.442897   -3.247231 H        1 UNL1     0.0602
     73 H         -4.069921   -2.479386   -3.743251 H        1 UNL1     0.0628
     74 H         -2.618251   -1.311971   -6.190785 H        1 UNL1     0.1022
     75 H         2.843244   -11.233674   -2.300599 H        1 UNL1     0.0279
     76 H         4.280514   -10.524156   -2.920389 H        1 UNL1     0.0279
     77 H         3.506849   -9.939104   -1.392497 H        1 UNL1     0.0279
     78 H         0.679622   -10.475735   -1.811521 H        1 UNL1     0.1553
     79 H         0.850241   -8.731874   -0.886285 H        1 UNL1     0.1484
     80 H         -1.414967   -5.986731   0.445076 H        1 UNL1     0.0317
     81 H         -2.035304   -7.450083   -0.305731 H        1 UNL1     0.0317
     82 H         -0.279277   -8.842558   0.821693 H        1 UNL1     0.0428
     83 H         -1.256118   -7.937095   1.956427 H        1 UNL1     0.0428
     84 H         2.567847   -6.321648   1.023283 H        1 UNL1     0.0428
     85 H         2.161155   -7.820894   0.264347 H        1 UNL1     0.0428
     86 H         1.879144   -5.750373   -1.098835 H        1 UNL1     0.0317
     87 H         0.739836   -5.079127   -0.024703 H        1 UNL1     0.0317
     88 H         0.73484   -7.167759   3.733624 H        1 UNL1     0.0429
     89 H         0.877966   -8.772273   3.011623 H        1 UNL1     0.0429
     90 H         2.990506   -6.545024   2.766601 H        1 UNL1     0.0308
     91 H         4.225415   -8.396719   4.342051 H        1 UNL1     0.0233
     92 H         3.277056   -7.05084   5.023754 H        1 UNL1     0.0233
     93 H         2.579235   -8.652204   4.908515 H        1 UNL1     0.0233
     94 H         2.722783   -9.259886   1.631404 H        1 UNL1     0.0233
     95 H         3.556745   -7.822402   1.021096 H        1 UNL1     0.0233
     96 H         4.328586   -8.83792   2.260844 H        1 UNL1     0.0233
     97 H         -5.503701   -7.325262   -7.29882 H        1 UNL1     0.0280
     98 H         -4.269527   -7.472763   -8.520396 H        1 UNL1     0.0280
     99 H         -4.91386   -8.941545   -7.728409 H        1 UNL1     0.0280
     100 H         -2.495205   -10.72842   -6.39805 H        1 UNL1     0.2922
     101 H         2.172531   -1.642578   -4.578011 H        1 UNL1     0.0236
     102 H         3.111145   -3.153982   -4.895381 H        1 UNL1     0.0236
     103 H         3.51041   -2.102889   -3.572019 H        1 UNL1     0.0236
     104 H         2.836696   -1.278685   -2.214562 H        1 UNL1     0.2098
     105 H         -1.494936   0.478856   -0.73936 H        1 UNL1     0.0234
     106 H         -1.045101   -1.232562   -0.49483 H        1 UNL1     0.0234
     107 H         0.0   0.0   0.0 H        1 UNL1     0.0234
     108 H         -0.045047   -0.191975   -4.750807 H        1 UNL1     0.2098
     109 H         -2.750457   -2.070246   -2.263867 H        1 UNL1     0.0234
     110 H         -2.806661   -1.21963   -0.687131 H        1 UNL1     0.0234
     111 H         -4.205684   -2.036922   -1.290134 H        1 UNL1     0.0234
     112 H         -3.139625   4.987945   -0.381501 H        1 UNL1     0.0342
     113 H         -1.665549   3.979155   -0.163145 H        1 UNL1     0.0342
     114 H         -2.577276   3.913235   -1.6739 H        1 UNL1     0.0342
     115 H         -3.56885   2.706249   -4.116 H        1 UNL1     0.0234
     116 H         -2.156263   3.760885   -4.001422 H        1 UNL1     0.0234
     117 H         -2.201946   2.333857   -5.05743 H        1 UNL1     0.0234
     118 H         -5.288592   -3.523024   -4.622573 H        1 UNL1     0.0309
     119 H         -5.358682   -5.311143   -4.698588 H        1 UNL1     0.0309
     120 H         -4.440037   -4.478742   -3.463535 H        1 UNL1     0.0309
     121 H         -4.195391   2.179311   -5.930318 H        1 UNL1     0.0524
     122 H         -5.350519   0.844342   -6.032273 H        1 UNL1     0.0524
     123 H         -5.297405   1.853504   -4.565128 H        1 UNL1     0.0524
@<TRIPOS>BOND
     1     1     2    1
     2     1    42    1
     3     2     3    2
     4     3     4    1
     5     4     5    2
     6     5     7    1
     7     6    75    1
     8     6    76    1
     9     6    77    1
    10     7     9   am
    11     9    10    1
    12    10    11    2
    13    10    43    1
    14    11    14    1
    15    11    15    1
    16    12    13   ar
    17    12    27   ar
    18    12    43    1
    19    13    14    1
    20    13    30   ar
    21    14    17    2
    22    15    16    1
    23    16    17    1
    24    16    18    1
    25    16    22    1
    26    18    19    1
    27    19    20    1
    28    20    21    1
    29    21    22    1
    30    23    24    1
    31    23    88    1
    32    23    89    1
    33    24    25    1
    34    24    26    1
    35    24    90    1
    36    25    91    1
    37    25    92    1
    38    25    93    1
    39    26    94    1
    40    26    95    1
    41    26    96    1
    42    27    28   ar
    43    28    29   ar
    44    29    30   ar
    45    29    31    1
    46    30    33    1
    47    31    32    1
    48    32    33    1
    49    32    35    1
    50    34    97    1
    51    34    98    1
    52    34    99    1
    53    35    61    1
    54    36    37    1
    55    36    60    1
    56    37    38    1
    57    38    39    1
    58    39    40    1
    59    40    41    1
    60    41    42    1
    61    45   100    1
    62    47   101    1
    63    47   102    1
    64    47   103    1
    65    48   104    1
    66    49   105    1
    67    49   106    1
    68    49   107    1
    69    50   108    1
    70    51    59    1
    71    52   109    1
    72    52   110    1
    73    52   111    1
    74    53    54    1
    75    54    55    2
    76    54    56    1
    77    56   112    1
    78    56   113    1
    79    56   114    1
    80    57   115    1
    81    57   116    1
    82    57   117    1
    83    58   118    1
    84    58   119    1
    85    58   120    1
    86    59   121    1
    87    59   122    1
    88    59   123    1
    89    60    61    2
    90     1    47    1
    91     1    62    1
    92     2    63    1
    93     3    64    1
    94     4    65    1
    95     5     6    1
    96     7     8    2
    97     9    78    1
    98    15    79    1
    99    18    80    1
   100    18    81    1
   101    19    82    1
   102    19    83    1
   103    20    23    1
   104    21    84    1
   105    21    85    1
   106    22    86    1
   107    22    87    1
   108    27    45    1
   109    28    34    1
   110    32    58    1
   111    33    46    2
   112    36    51    1
   113    36    66    1
   114    37    52    1
   115    37    67    1
   116    38    53    1
   117    38    68    1
   118    42    48    1
   119    42    72    1
   120    43    44    2
   121    60    73    1
   122    61    74    1
   123    39    69    1
   124    39    57    1
   125    40    70    1
   126    40    50    1
   127    41    71    1
   128    41    49    1
