@<TRIPOS>MOLECULE
*****
 123 128 0 0 0
SMALL
GASTEIGER

@<TRIPOS>ATOM
     1 C         4.970833   2.241405   0.527966 C.3        1 UNL1     0.0009
     2 C         6.357239   3.119468   -0.334543 C.2        1 UNL1     -0.0787
     3 C         7.669376   3.099038   -0.946037 C.2        1 UNL1     -0.0649
     4 C         8.454209   4.354221   -1.767565 C.2        1 UNL1     -0.0542
     5 C         9.479606   4.674628   -2.691133 C.2        1 UNL1     0.0115
     6 C         10.698267   4.100548   -3.464839 C.3        1 UNL1     -0.0348
     7 C         9.456448   6.109409   -3.410755 C.2        1 UNL1     0.2441
     8 O         10.180487   7.035469   -3.072072 O.2        1 UNL1     -0.2702
     9 N         8.739461   6.1507   -4.619216 N.am        1 UNL1     -0.2772
     10 C         7.413355   6.430419   -4.381471 C.2        1 UNL1     0.1049
     11 C         6.653948   5.40466   -4.041853 C.2        1 UNL1     0.0801
     12 C         5.907747   8.00256   -3.149053 C.ar        1 UNL1     0.0753
     13 C         5.243195   6.842041   -2.638981 C.ar        1 UNL1     0.0305
     14 C         5.512747   5.509097   -3.173446 C.2        1 UNL1     0.0924
     15 N         6.911026   4.086275   -4.089808 N.pl3        1 UNL1     -0.3170
     16 C         5.692989   3.38925   -3.772324 C.3        1 UNL1     0.1275
     17 N         4.926718   4.348241   -2.894321 N.2        1 UNL1     -0.2557
     18 C         4.892141   3.266494   -5.065102 C.3        1 UNL1     0.0016
     19 C         5.756254   2.57697   -6.108872 C.3        1 UNL1     0.0026
     20 N         6.141941   1.266109   -5.604969 N.3        1 UNL1     -0.3018
     21 C         6.864611   1.277568   -4.331397 C.3        1 UNL1     0.0026
     22 C         5.976464   1.97051   -3.296544 C.3        1 UNL1     0.0016
     23 C         6.709708   0.412722   -6.629671 C.3        1 UNL1     0.0012
     24 C         5.625972   -0.024824   -7.627583 C.3        1 UNL1     -0.0339
     25 C         5.885113   -1.446933   -8.151519 C.3        1 UNL1     -0.0615
     26 C         4.2525   0.094488   -6.990308 C.3        1 UNL1     -0.0615
     27 C         5.559062   9.280989   -2.719919 C.ar        1 UNL1     0.1347
     28 C         4.53905   9.526041   -1.817935 C.ar        1 UNL1     0.0342
     29 C         3.931763   8.365757   -1.292476 C.ar        1 UNL1     0.1435
     30 C         4.295101   7.077187   -1.685912 C.ar        1 UNL1     0.0774
     31 O         2.849817   8.439774   -0.486919 O.3        1 UNL1     -0.4436
     32 C         2.25729   7.133938   -0.554581 C.3        1 UNL1     0.3143
     33 C         3.383253   6.209081   -0.970587 C.2        1 UNL1     0.2504
     34 C         3.944169   10.870424   -1.503526 C.3        1 UNL1     -0.0327
     35 O         1.885715   6.765134   0.779273 O.2        1 UNL1     -0.4528
     36 C         -1.13587   4.494776   0.42773 C.3        1 UNL1     0.0854
     37 C         -1.280012   3.145293   -0.375789 C.3        1 UNL1     0.0236
     38 C         -1.78834   1.894463   0.489527 C.3        1 UNL1     0.1131
     39 C         -1.069833   1.539308   1.853302 C.3        1 UNL1     0.0200
     40 C         0.594457   1.563601   1.962776 C.3        1 UNL1     0.0661
     41 C         1.671788   0.807311   0.892733 C.3        1 UNL1     0.0091
     42 C         3.358458   1.294156   0.360257 C.3        1 UNL1     0.0661
     43 C         6.919554   7.805681   -4.216642 C.2        1 UNL1     0.2131
     44 O         7.260505   8.681707   -4.990637 O.2        1 UNL1     -0.2851
     45 O         6.285959   10.353891   -3.231721 O.3        1 UNL1     -0.5056
     46 O         3.510016   5.026629   -0.743448 O.2        1 UNL1     -0.2836
     47 C         5.346239   1.964518   2.008636 C.3        1 UNL1     -0.0566
     48 O         3.937507   -0.054854   0.569996 O.3        1 UNL1     -0.3909
     49 C         0.916688   0.398851   -0.352449 C.3        1 UNL1     -0.0577
     50 O         1.057127   2.861608   2.277158 O.3        1 UNL1     -0.3910
     51 O         -1.299238   4.400365   1.824809 O.3        1 UNL1     -0.3753
     52 C         -0.177563   3.002266   -1.475379 C.3        1 UNL1     -0.0564
     53 O         -2.249447   0.735006   -0.344359 O.3        1 UNL1     -0.4608
     54 C         -2.054943   -0.587759   -0.043708 C.2        1 UNL1     0.3042
     55 O         -1.224713   -1.351181   -0.535383 O.2        1 UNL1     -0.2512
     56 C         -2.946715   -1.092223   1.054915 C.3        1 UNL1     0.0332
     57 C         -1.904367   2.227363   3.031567 C.3        1 UNL1     -0.0567
     58 C         1.209816   7.187248   -1.691017 C.3        1 UNL1     0.0210
     59 C         -1.755556   5.595326   2.457033 C.3        1 UNL1     0.0372
     60 C         0.134581   5.233734   0.193092 C.2        1 UNL1     -0.0208
     61 C         0.963934   5.822819   1.055586 C.2        1 UNL1     0.0882
     62 H         4.398769   3.177027   0.519864 H        1 UNL1     0.0365
     63 H         5.986194   4.146437   -0.323079 H        1 UNL1     0.0576
     64 H         8.227206   2.168577   -1.073219 H        1 UNL1     0.0615
     65 H         7.866818   5.240297   -1.511979 H        1 UNL1     0.0622
     66 H         -1.935542   5.137532   0.033476 H        1 UNL1     0.0645
     67 H         -2.145035   3.319329   -1.039118 H        1 UNL1     0.0362
     68 H         -2.787108   2.260339   0.772582 H        1 UNL1     0.0741
     69 H         -1.30996   0.518072   2.117547 H        1 UNL1     0.0359
     70 H         0.73252   0.986849   2.897312 H        1 UNL1     0.0600
     71 H         1.795951   -0.16887   1.401271 H        1 UNL1     0.0348
     72 H         3.164927   1.842682   1.29352 H        1 UNL1     0.0602
     73 H         0.276182   5.362101   -0.851283 H        1 UNL1     0.0628
     74 H         0.922026   5.693683   2.137624 H        1 UNL1     0.1022
     75 H         11.359769   3.518901   -2.778446 H        1 UNL1     0.0279
     76 H         10.479267   3.377652   -4.247482 H        1 UNL1     0.0279
     77 H         11.38586   4.883572   -3.816677 H        1 UNL1     0.0279
     78 H         8.783886   5.241416   -5.074525 H        1 UNL1     0.1553
     79 H         7.639832   3.680865   -4.647856 H        1 UNL1     0.1484
     80 H         3.975531   2.698458   -4.865279 H        1 UNL1     0.0317
     81 H         4.577931   4.251795   -5.425802 H        1 UNL1     0.0317
     82 H         6.64077   3.177894   -6.366619 H        1 UNL1     0.0428
     83 H         5.166611   2.501354   -7.023012 H        1 UNL1     0.0428
     84 H         7.072124   0.278437   -3.935813 H        1 UNL1     0.0428
     85 H         7.857745   1.73742   -4.429057 H        1 UNL1     0.0428
     86 H         6.476169   1.842862   -2.354212 H        1 UNL1     0.0317
     87 H         5.043399   1.40859   -3.167188 H        1 UNL1     0.0317
     88 H         7.47106   0.989338   -7.171106 H        1 UNL1     0.0429
     89 H         7.216615   -0.455694   -6.189589 H        1 UNL1     0.0429
     90 H         5.622021   0.665749   -8.479232 H        1 UNL1     0.0308
     91 H         6.137075   -2.131476   -7.336033 H        1 UNL1     0.0233
     92 H         5.009842   -1.828447   -8.682515 H        1 UNL1     0.0233
     93 H         6.716328   -1.483741   -8.866055 H        1 UNL1     0.0233
     94 H         3.537538   -0.552573   -7.509903 H        1 UNL1     0.0233
     95 H         4.296806   -0.223306   -5.944839 H        1 UNL1     0.0233
     96 H         3.881473   1.122409   -7.031366 H        1 UNL1     0.0233
     97 H         2.87763   10.901344   -1.705436 H        1 UNL1     0.0280
     98 H         4.057298   11.135507   -0.444192 H        1 UNL1     0.0280
     99 H         4.434614   11.64366   -2.117256 H        1 UNL1     0.0280
     100 H         7.220276   10.249761   -3.188928 H        1 UNL1     0.2922
     101 H         4.817065   2.661117   2.658545 H        1 UNL1     0.0236
     102 H         6.420916   1.974275   2.187405 H        1 UNL1     0.0236
     103 H         5.015291   0.9661   2.340037 H        1 UNL1     0.0236
     104 H         3.531793   -0.427765   1.377031 H        1 UNL1     0.2098
     105 H         0.685092   1.219542   -1.02672 H        1 UNL1     0.0234
     106 H         1.361977   -0.429052   -0.90401 H        1 UNL1     0.0234
     107 H         0.0   -0.0   0.0 H        1 UNL1     0.0234
     108 H         2.018474   2.876333   2.105803 H        1 UNL1     0.2098
     109 H         -0.152916   3.8659   -2.154526 H        1 UNL1     0.0234
     110 H         0.822607   2.832141   -1.062509 H        1 UNL1     0.0234
     111 H         -0.354306   2.126713   -2.114218 H        1 UNL1     0.0234
     112 H         -2.726822   -2.144506   1.259101 H        1 UNL1     0.0342
     113 H         -2.861108   -0.492468   1.959796 H        1 UNL1     0.0342
     114 H         -3.987584   -1.026592   0.709303 H        1 UNL1     0.0342
     115 H         -1.88136   1.628101   3.952189 H        1 UNL1     0.0234
     116 H         -1.565932   3.233664   3.286262 H        1 UNL1     0.0234
     117 H         -2.989175   2.272733   2.833891 H        1 UNL1     0.0234
     118 H         0.200606   7.428329   -1.313682 H        1 UNL1     0.0309
     119 H         1.473208   7.892868   -2.485325 H        1 UNL1     0.0309
     120 H         1.071259   6.217198   -2.180824 H        1 UNL1     0.0309
     121 H         -1.414205   5.571989   3.491582 H        1 UNL1     0.0524
     122 H         -1.33676   6.50208   1.989653 H        1 UNL1     0.0524
     123 H         -2.839963   5.648939   2.421246 H        1 UNL1     0.0524
@<TRIPOS>BOND
     1     1     2    1
     2     1    42    1
     3     2     3    2
     4     3     4    1
     5     4     5    2
     6     5     7    1
     7     6    75    1
     8     6    76    1
     9     6    77    1
    10     7     9   am
    11     9    10    1
    12    10    11    2
    13    10    43    1
    14    11    14    1
    15    11    15    1
    16    12    13   ar
    17    12    27   ar
    18    12    43    1
    19    13    14    1
    20    13    30   ar
    21    14    17    2
    22    15    16    1
    23    16    17    1
    24    16    18    1
    25    16    22    1
    26    18    19    1
    27    19    20    1
    28    20    21    1
    29    21    22    1
    30    23    24    1
    31    23    88    1
    32    23    89    1
    33    24    25    1
    34    24    26    1
    35    24    90    1
    36    25    91    1
    37    25    92    1
    38    25    93    1
    39    26    94    1
    40    26    95    1
    41    26    96    1
    42    27    28   ar
    43    28    29   ar
    44    29    30   ar
    45    29    31    1
    46    30    33    1
    47    31    32    1
    48    32    33    1
    49    32    35    1
    50    34    97    1
    51    34    98    1
    52    34    99    1
    53    35    61    1
    54    36    37    1
    55    36    60    1
    56    37    38    1
    57    38    39    1
    58    39    40    1
    59    40    41    1
    60    41    42    1
    61    45   100    1
    62    47   101    1
    63    47   102    1
    64    47   103    1
    65    48   104    1
    66    49   105    1
    67    49   106    1
    68    49   107    1
    69    50   108    1
    70    51    59    1
    71    52   109    1
    72    52   110    1
    73    52   111    1
    74    53    54    1
    75    54    55    2
    76    54    56    1
    77    56   112    1
    78    56   113    1
    79    56   114    1
    80    57   115    1
    81    57   116    1
    82    57   117    1
    83    58   118    1
    84    58   119    1
    85    58   120    1
    86    59   121    1
    87    59   122    1
    88    59   123    1
    89    60    61    2
    90     1    47    1
    91     1    62    1
    92     2    63    1
    93     3    64    1
    94     4    65    1
    95     5     6    1
    96     7     8    2
    97     9    78    1
    98    15    79    1
    99    18    80    1
   100    18    81    1
   101    19    82    1
   102    19    83    1
   103    20    23    1
   104    21    84    1
   105    21    85    1
   106    22    86    1
   107    22    87    1
   108    27    45    1
   109    28    34    1
   110    32    58    1
   111    33    46    2
   112    36    51    1
   113    36    66    1
   114    37    52    1
   115    37    67    1
   116    38    53    1
   117    38    68    1
   118    42    48    1
   119    42    72    1
   120    43    44    2
   121    60    73    1
   122    61    74    1
   123    39    69    1
   124    39    57    1
   125    40    70    1
   126    40    50    1
   127    41    71    1
   128    41    49    1
