@<TRIPOS>MOLECULE
*****
 123 128 0 0 0
SMALL
GASTEIGER

@<TRIPOS>ATOM
     1 C         5.170615   1.741427   0.481082 C.3        1 UNL1     0.0009
     2 C         6.606807   2.545382   -0.372174 C.2        1 UNL1     -0.0787
     3 C         7.88725   2.445285   -1.040375 C.2        1 UNL1     -0.0649
     4 C         8.765002   3.679067   -1.797797 C.2        1 UNL1     -0.0542
     5 C         9.783625   3.970148   -2.738413 C.2        1 UNL1     0.0115
     6 C         10.909244   3.342993   -3.606158 C.3        1 UNL1     -0.0348
     7 C         9.879916   5.453201   -3.345266 C.2        1 UNL1     0.2441
     8 O         10.705708   6.273706   -2.969281 O.2        1 UNL1     -0.2702
     9 N         9.127723   5.661119   -4.514508 N.am        1 UNL1     -0.2772
     10 C         7.846175   6.049674   -4.198309 C.2        1 UNL1     0.1049
     11 C         6.999564   5.079508   -3.904629 C.2        1 UNL1     0.0801
     12 C         6.552828   7.658339   -2.785233 C.ar        1 UNL1     0.0753
     13 C         5.793022   6.531563   -2.336148 C.ar        1 UNL1     0.0305
     14 C         5.906827   5.225626   -2.981616 C.2        1 UNL1     0.0924
     15 N         7.119968   3.750338   -4.063808 N.pl3        1 UNL1     -0.3170
     16 C         5.849862   3.153025   -3.747104 C.3        1 UNL1     0.1275
     17 N         5.216735   4.109277   -2.766056 N.2        1 UNL1     -0.2557
     18 C         4.99465   3.213183   -5.009125 C.3        1 UNL1     0.0016
     19 C         5.746359   2.527886   -6.139121 C.3        1 UNL1     0.0026
     20 N         6.01527   1.14944   -5.753634 N.3        1 UNL1     -0.3018
     21 C         6.780798   0.988084   -4.515773 C.3        1 UNL1     0.0026
     22 C         6.00522   1.679842   -3.393346 C.3        1 UNL1     0.0016
     23 C         6.456447   0.329145   -6.864095 C.3        1 UNL1     0.0012
     24 C         5.298743   0.081222   -7.843896 C.3        1 UNL1     -0.0339
     25 C         5.333597   1.07319   -9.018137 C.3        1 UNL1     -0.0615
     26 C         5.32484   -1.358368   -8.327299 C.3        1 UNL1     -0.0615
     27 C         6.351035   8.926384   -2.245363 C.ar        1 UNL1     0.1347
     28 C         5.394228   9.197413   -1.283534 C.ar        1 UNL1     0.0342
     29 C         4.691934   8.064022   -0.821613 C.ar        1 UNL1     0.1435
     30 C         4.908555   6.781626   -1.327336 C.ar        1 UNL1     0.0774
     31 O         3.652765   8.179177   0.033883 O.3        1 UNL1     -0.4436
     32 C         2.929044   6.947379   -0.106735 C.3        1 UNL1     0.3143
     33 C         3.939879   5.95276   -0.640739 C.2        1 UNL1     0.2504
     34 C         4.950208   10.564207   -0.842147 C.3        1 UNL1     -0.0327
     35 O         2.57034   6.511344   1.210253 O.2        1 UNL1     -0.4528
     36 C         -0.676241   4.583771   0.82005 C.3        1 UNL1     0.0854
     37 C         -0.985101   3.323524   -0.076558 C.3        1 UNL1     0.0236
     38 C         -1.585932   2.063434   0.712694 C.3        1 UNL1     0.1131
     39 C         -0.858405   1.531608   2.012747 C.3        1 UNL1     0.0200
     40 C         0.802654   1.383683   2.050698 C.3        1 UNL1     0.0661
     41 C         1.75864   0.61334   0.880112 C.3        1 UNL1     0.0091
     42 C         3.465645   0.97338   0.31274 C.3        1 UNL1     0.0661
     43 C         7.500386   7.449142   -3.908011 C.2        1 UNL1     0.2131
     44 O         7.900158   8.346561   -4.627427 O.2        1 UNL1     -0.2851
     45 O         7.163892   9.96027   -2.705559 O.3        1 UNL1     -0.5056
     46 O         3.954395   4.74922   -0.509847 O.2        1 UNL1     -0.2836
     47 C         5.569162   1.311552   1.918563 C.3        1 UNL1     -0.0566
     48 O         3.91234   -0.438359   0.393824 O.3        1 UNL1     -0.3909
     49 C         0.921705   0.3818   -0.358203 C.3        1 UNL1     -0.0577
     50 O         1.405366   2.600729   2.442182 O.3        1 UNL1     -0.3910
     51 O         -0.797889   4.394443   2.211736 O.3        1 UNL1     -0.3753
     52 C         0.056873   3.161413   -1.231096 C.3        1 UNL1     -0.0564
     53 O         -2.191781   1.025208   -0.185838 O.3        1 UNL1     -0.4608
     54 C         -2.427406   -0.281164   0.154461 C.2        1 UNL1     0.3042
     55 O         -1.860599   -1.281165   -0.284364 O.2        1 UNL1     -0.2512
     56 C         -3.465569   -0.445182   1.227786 C.3        1 UNL1     0.0332
     57 C         -1.576009   2.201792   3.275312 C.3        1 UNL1     -0.0567
     58 C         1.852089   7.193881   -1.188832 C.3        1 UNL1     0.0210
     59 C         -1.107946   5.573989   2.952277 C.3        1 UNL1     0.0372
     60 C         0.653205   5.210915   0.586761 C.2        1 UNL1     -0.0208
     61 C         1.568461   5.644942   1.454328 C.2        1 UNL1     0.0882
     62 H         4.696283   2.726294   0.569153 H        1 UNL1     0.0365
     63 H         6.342282   3.599577   -0.266485 H        1 UNL1     0.0576
     64 H         8.34308   1.47775   -1.262192 H        1 UNL1     0.0615
     65 H         8.279915   4.595207   -1.450146 H        1 UNL1     0.0622
     66 H         -1.420421   5.331331   0.511187 H        1 UNL1     0.0645
     67 H         -1.851396   3.634058   -0.686199 H        1 UNL1     0.0362
     68 H         -2.531683   2.501717   1.066225 H        1 UNL1     0.0741
     69 H         -1.191   0.521013   2.208927 H        1 UNL1     0.0359
     70 H         0.915201   0.723304   2.931773 H        1 UNL1     0.0600
     71 H         1.801588   -0.407832   1.307101 H        1 UNL1     0.0348
     72 H         3.362382   1.461862   1.292555 H        1 UNL1     0.0602
     73 H         0.769357   5.407861   -0.450046 H        1 UNL1     0.0628
     74 H         1.552705   5.434442   2.524224 H        1 UNL1     0.1022
     75 H         10.952433   2.237671   -3.453082 H        1 UNL1     0.0279
     76 H         10.79362   3.425806   -4.684509 H        1 UNL1     0.0279
     77 H         11.915394   3.646292   -3.281545 H        1 UNL1     0.0279
     78 H         9.063443   4.791192   -5.039077 H        1 UNL1     0.1553
     79 H         7.783412   3.321309   -4.682444 H        1 UNL1     0.1484
     80 H         4.033045   2.72366   -4.813043 H        1 UNL1     0.0317
     81 H         4.769005   4.250226   -5.279822 H        1 UNL1     0.0317
     82 H         6.677298   3.057815   -6.389 H        1 UNL1     0.0428
     83 H         5.119541   2.583813   -7.02964 H        1 UNL1     0.0428
     84 H         6.900221   -0.054999   -4.2067 H        1 UNL1     0.0428
     85 H         7.811215   1.354619   -4.621658 H        1 UNL1     0.0428
     86 H         6.523059   1.428855   -2.486243 H        1 UNL1     0.0317
     87 H         5.025335   1.203634   -3.266274 H        1 UNL1     0.0317
     88 H         7.252256   0.869725   -7.393016 H        1 UNL1     0.0429
     89 H         6.888367   -0.617203   -6.513888 H        1 UNL1     0.0429
     90 H         4.34692   0.201739   -7.313121 H        1 UNL1     0.0308
     91 H         6.285644   1.020969   -9.554777 H        1 UNL1     0.0233
     92 H         4.517051   0.874296   -9.716206 H        1 UNL1     0.0233
     93 H         5.209605   2.112524   -8.690651 H        1 UNL1     0.0233
     94 H         4.628526   -1.488947   -9.162722 H        1 UNL1     0.0233
     95 H         6.327287   -1.615761   -8.680585 H        1 UNL1     0.0233
     96 H         5.04247   -2.052075   -7.530426 H        1 UNL1     0.0233
     97 H         4.151942   10.515812   -0.107531 H        1 UNL1     0.0280
     98 H         5.762285   11.129664   -0.366704 H        1 UNL1     0.0280
     99 H         4.58445   11.132525   -1.712969 H        1 UNL1     0.0280
     100 H         6.697327   10.712032   -3.026171 H        1 UNL1     0.2922
     101 H         4.706718   0.879223   2.425452 H        1 UNL1     0.0236
     102 H         6.022234   2.116327   2.496531 H        1 UNL1     0.0236
     103 H         6.324253   0.507795   1.916093 H        1 UNL1     0.0236
     104 H         4.333403   -0.564831   1.266568 H        1 UNL1     0.2098
     105 H         0.709227   1.280858   -0.93123 H        1 UNL1     0.0234
     106 H         1.288673   -0.406842   -1.01494 H        1 UNL1     0.0234
     107 H         0.0   -0.0   0.0 H        1 UNL1     0.0234
     108 H         1.207001   3.258985   1.748555 H        1 UNL1     0.2098
     109 H         1.082287   3.046517   -0.852895 H        1 UNL1     0.0234
     110 H         -0.178089   2.334554   -1.909949 H        1 UNL1     0.0234
     111 H         0.078054   4.044104   -1.884053 H        1 UNL1     0.0234
     112 H         -3.59901   -1.506703   1.457378 H        1 UNL1     0.0342
     113 H         -3.219875   0.120758   2.12511 H        1 UNL1     0.0342
     114 H         -4.420418   -0.061199   0.843096 H        1 UNL1     0.0342
     115 H         -2.645911   1.955059   3.315549 H        1 UNL1     0.0234
     116 H         -1.13807   1.921539   4.235373 H        1 UNL1     0.0234
     117 H         -1.61312   3.303696   3.226603 H        1 UNL1     0.0234
     118 H         0.952526   7.682138   -0.774831 H        1 UNL1     0.0309
     119 H         2.220643   7.781215   -2.035832 H        1 UNL1     0.0309
     120 H         1.461348   6.262422   -1.612873 H        1 UNL1     0.0309
     121 H         -0.286158   6.275956   2.813481 H        1 UNL1     0.0524
     122 H         -2.027746   6.064301   2.592279 H        1 UNL1     0.0524
     123 H         -1.224193   5.336566   4.005943 H        1 UNL1     0.0524
@<TRIPOS>BOND
     1     1     2    1
     2     1    42    1
     3     2     3    2
     4     3     4    1
     5     4     5    2
     6     5     7    1
     7     6    75    1
     8     6    76    1
     9     6    77    1
    10     7     9   am
    11     9    10    1
    12    10    11    2
    13    10    43    1
    14    11    14    1
    15    11    15    1
    16    12    13   ar
    17    12    27   ar
    18    12    43    1
    19    13    14    1
    20    13    30   ar
    21    14    17    2
    22    15    16    1
    23    16    17    1
    24    16    18    1
    25    16    22    1
    26    18    19    1
    27    19    20    1
    28    20    21    1
    29    21    22    1
    30    23    24    1
    31    23    88    1
    32    23    89    1
    33    24    25    1
    34    24    26    1
    35    24    90    1
    36    25    91    1
    37    25    92    1
    38    25    93    1
    39    26    94    1
    40    26    95    1
    41    26    96    1
    42    27    28   ar
    43    28    29   ar
    44    29    30   ar
    45    29    31    1
    46    30    33    1
    47    31    32    1
    48    32    33    1
    49    32    35    1
    50    34    97    1
    51    34    98    1
    52    34    99    1
    53    35    61    1
    54    36    37    1
    55    36    60    1
    56    37    38    1
    57    38    39    1
    58    39    40    1
    59    40    41    1
    60    41    42    1
    61    45   100    1
    62    47   101    1
    63    47   102    1
    64    47   103    1
    65    48   104    1
    66    49   105    1
    67    49   106    1
    68    49   107    1
    69    50   108    1
    70    51    59    1
    71    52   109    1
    72    52   110    1
    73    52   111    1
    74    53    54    1
    75    54    55    2
    76    54    56    1
    77    56   112    1
    78    56   113    1
    79    56   114    1
    80    57   115    1
    81    57   116    1
    82    57   117    1
    83    58   118    1
    84    58   119    1
    85    58   120    1
    86    59   121    1
    87    59   122    1
    88    59   123    1
    89    60    61    2
    90     1    47    1
    91     1    62    1
    92     2    63    1
    93     3    64    1
    94     4    65    1
    95     5     6    1
    96     7     8    2
    97     9    78    1
    98    15    79    1
    99    18    80    1
   100    18    81    1
   101    19    82    1
   102    19    83    1
   103    20    23    1
   104    21    84    1
   105    21    85    1
   106    22    86    1
   107    22    87    1
   108    27    45    1
   109    28    34    1
   110    32    58    1
   111    33    46    2
   112    36    51    1
   113    36    66    1
   114    37    52    1
   115    37    67    1
   116    38    53    1
   117    38    68    1
   118    42    48    1
   119    42    72    1
   120    43    44    2
   121    60    73    1
   122    61    74    1
   123    39    69    1
   124    39    57    1
   125    40    70    1
   126    40    50    1
   127    41    71    1
   128    41    49    1
