@<TRIPOS>MOLECULE
*****
 123 128 0 0 0
SMALL
GASTEIGER

@<TRIPOS>ATOM
     1 C         3.743303   3.63744   1.072329 C.3        1 UNL1     0.0009
     2 C         4.22726   5.383271   0.678761 C.2        1 UNL1     -0.0787
     3 C         5.135541   6.32588   0.060246 C.2        1 UNL1     -0.0649
     4 C         4.96065   8.004486   -0.074113 C.2        1 UNL1     -0.0542
     5 C         5.376631   9.162659   -0.77602 C.2        1 UNL1     0.0115
     6 C         6.405905   9.706746   -1.804557 C.3        1 UNL1     -0.0348
     7 C         4.4796   10.490775   -0.684196 C.2        1 UNL1     0.2441
     8 O         4.771676   11.443263   0.025723 O.2        1 UNL1     -0.2702
     9 N         3.479384   10.595023   -1.666465 N.am        1 UNL1     -0.2772
     10 C         2.323388   9.981366   -1.241706 C.2        1 UNL1     0.1049
     11 C         2.262523   8.673109   -1.411945 C.2        1 UNL1     0.0801
     12 C         0.749327   9.841042   0.697359 C.ar        1 UNL1     0.0753
     13 C         0.882635   8.419165   0.601947 C.ar        1 UNL1     0.0305
     14 C         1.540335   7.787207   -0.539592 C.2        1 UNL1     0.0924
     15 N         3.057868   7.856789   -2.124388 N.pl3        1 UNL1     -0.3170
     16 C         2.459094   6.548461   -2.122715 C.3        1 UNL1     0.1275
     17 N         1.665827   6.497614   -0.839803 N.2        1 UNL1     -0.2557
     18 C         1.436407   6.517792   -3.254471 C.3        1 UNL1     0.0016
     19 C         2.136627   6.886081   -4.552794 C.3        1 UNL1     0.0026
     20 N         3.211133   5.932431   -4.791577 N.3        1 UNL1     -0.3018
     21 C         4.212917   5.845163   -3.727066 C.3        1 UNL1     0.0026
     22 C         3.488289   5.469649   -2.433313 C.3        1 UNL1     0.0016
     23 C         3.744595   6.009157   -6.137004 C.3        1 UNL1     0.0012
     24 C         2.72229   5.475836   -7.152985 C.3        1 UNL1     -0.0339
     25 C         1.982902   6.622646   -7.861638 C.3        1 UNL1     -0.0615
     26 C         3.407803   4.55427   -8.14675 C.3        1 UNL1     -0.0615
     27 C         0.016869   10.429914   1.725393 C.ar        1 UNL1     0.1347
     28 C         -0.657269   9.70173   2.689414 C.ar        1 UNL1     0.0342
     29 C         -0.471458   8.305542   2.603987 C.ar        1 UNL1     0.1435
     30 C         0.289144   7.703399   1.600927 C.ar        1 UNL1     0.0774
     31 O         -1.150484   7.454004   3.403245 O.3        1 UNL1     -0.4436
     32 C         -1.075043   6.187706   2.731181 C.3        1 UNL1     0.3143
     33 C         0.149346   6.282693   1.843453 C.2        1 UNL1     0.2504
     34 C         -1.661175   10.248539   3.665771 C.3        1 UNL1     -0.0327
     35 O         -0.79391   5.194217   3.724758 O.2        1 UNL1     -0.4528
     36 C         -2.3965   1.988756   2.473832 C.3        1 UNL1     0.0854
     37 C         -2.161557   1.221337   1.116117 C.3        1 UNL1     0.0236
     38 C         -1.744311   -0.31904   1.273879 C.3        1 UNL1     0.1131
     39 C         -0.551491   -0.714953   2.234453 C.3        1 UNL1     0.0200
     40 C         0.859147   0.175269   2.240997 C.3        1 UNL1     0.0661
     41 C         1.758891   0.621465   0.87389 C.3        1 UNL1     0.0091
     42 C         2.774914   2.114911   0.553397 C.3        1 UNL1     0.0661
     43 C         1.342202   10.664477   -0.38556 C.2        1 UNL1     0.2131
     44 O         0.984048   11.800019   -0.640529 O.2        1 UNL1     -0.2851
     45 O         -0.025405   11.821847   1.771991 O.3        1 UNL1     -0.5056
     46 O         0.862046   5.388941   1.444555 O.2        1 UNL1     -0.2836
     47 C         4.65197   3.065688   2.19367 C.3        1 UNL1     -0.0566
     48 O         3.934309   1.353122   0.029379 O.3        1 UNL1     -0.3909
     49 C         0.918687   0.385977   -0.361463 C.3        1 UNL1     -0.0577
     50 O         0.757453   1.268925   3.130547 O.3        1 UNL1     -0.3910
     51 O         -2.045897   1.288384   3.646004 O.3        1 UNL1     -0.3753
     52 C         -1.527682   2.146842   0.026808 C.3        1 UNL1     -0.0564
     53 O         -1.869101   -1.108195   0.003451 O.3        1 UNL1     -0.4608
     54 C         -1.219964   -2.283844   -0.269315 C.2        1 UNL1     0.3042
     55 O         -0.261704   -2.450482   -1.022846 O.2        1 UNL1     -0.2512
     56 C         -1.745658   -3.455842   0.509646 C.3        1 UNL1     0.0332
     57 C         -1.183653   -1.120126   3.646678 C.3        1 UNL1     -0.0567
     58 C         -2.333194   6.09136   1.837144 C.3        1 UNL1     0.0210
     59 C         -2.765826   1.677621   4.814791 C.3        1 UNL1     0.0372
     60 C         -1.746689   3.324874   2.561558 C.2        1 UNL1     -0.0208
     61 C         -1.047946   3.883012   3.550995 C.2        1 UNL1     0.0882
     62 H         2.840809   4.018951   1.564939 H        1 UNL1     0.0365
     63 H         3.457172   5.935314   1.221606 H        1 UNL1     0.0576
     64 H         5.980843   5.992725   -0.546037 H        1 UNL1     0.0615
     65 H         4.151603   8.238839   0.623028 H        1 UNL1     0.0622
     66 H         -3.47891   2.177791   2.500317 H        1 UNL1     0.0645
     67 H         -3.171919   1.131546   0.68061 H        1 UNL1     0.0362
     68 H         -2.652113   -0.706554   1.760964 H        1 UNL1     0.0741
     69 H         -0.205649   -1.705321   1.969931 H        1 UNL1     0.0359
     70 H         1.532106   -0.537576   2.754845 H        1 UNL1     0.0600
     71 H         2.465554   -0.229897   0.821268 H        1 UNL1     0.0348
     72 H         2.662139   2.053508   1.645563 H        1 UNL1     0.0602
     73 H         -2.018691   3.901925   1.712867 H        1 UNL1     0.0628
     74 H         -0.680552   3.345601   4.425894 H        1 UNL1     0.1022
     75 H         7.04065   8.877492   -2.200121 H        1 UNL1     0.0279
     76 H         5.998733   10.144079   -2.713414 H        1 UNL1     0.0279
     77 H         7.162896   10.358663   -1.344481 H        1 UNL1     0.0279
     78 H         3.783005   10.122398   -2.515298 H        1 UNL1     0.1553
     79 H         3.671196   8.173101   -2.852885 H        1 UNL1     0.1484
     80 H         0.993065   5.516156   -3.308678 H        1 UNL1     0.0317
     81 H         0.614241   7.214251   -3.057898 H        1 UNL1     0.0317
     82 H         2.519938   7.916851   -4.53044 H        1 UNL1     0.0428
     83 H         1.388951   6.859844   -5.346105 H        1 UNL1     0.0428
     84 H         4.963516   5.06633   -3.893891 H        1 UNL1     0.0428
     85 H         4.801432   6.769215   -3.642826 H        1 UNL1     0.0428
     86 H         4.261927   5.28505   -1.711235 H        1 UNL1     0.0317
     87 H         3.006073   4.490769   -2.544483 H        1 UNL1     0.0317
     88 H         3.946108   7.064035   -6.364862 H        1 UNL1     0.0429
     89 H         4.69969   5.474416   -6.218367 H        1 UNL1     0.0429
     90 H         1.984991   4.856064   -6.629072 H        1 UNL1     0.0308
     91 H         2.68295   7.296174   -8.365021 H        1 UNL1     0.0233
     92 H         1.27316   6.230514   -8.593831 H        1 UNL1     0.0233
     93 H         1.397087   7.235043   -7.165487 H        1 UNL1     0.0233
     94 H         2.749644   4.363796   -9.001374 H        1 UNL1     0.0233
     95 H         4.321299   5.023442   -8.522735 H        1 UNL1     0.0233
     96 H         3.666157   3.595241   -7.689056 H        1 UNL1     0.0233
     97 H         -2.123473   9.463898   4.257251 H        1 UNL1     0.0280
     98 H         -1.203777   10.938535   4.386846 H        1 UNL1     0.0280
     99 H         -2.455408   10.782188   3.118498 H        1 UNL1     0.0280
     100 H         -0.888441   12.184311   1.869006 H        1 UNL1     0.2922
     101 H         4.265035   2.102277   2.524997 H        1 UNL1     0.0236
     102 H         4.794483   3.756616   3.023907 H        1 UNL1     0.0236
     103 H         5.670487   2.848427   1.830883 H        1 UNL1     0.0236
     104 H         4.506096   1.126753   0.788845 H        1 UNL1     0.2098
     105 H         0.700092   1.283996   -0.933816 H        1 UNL1     0.0234
     106 H         1.286955   -0.401044   -1.019418 H        1 UNL1     0.0234
     107 H         0.0   -0.0   0.0 H        1 UNL1     0.0234
     108 H         0.108416   1.892197   2.751006 H        1 UNL1     0.2098
     109 H         -0.562403   2.564109   0.345926 H        1 UNL1     0.0234
     110 H         -1.410181   1.651834   -0.943194 H        1 UNL1     0.0234
     111 H         -2.167836   3.011963   -0.191627 H        1 UNL1     0.0234
     112 H         -1.172888   -4.354606   0.261648 H        1 UNL1     0.0342
     113 H         -1.737587   -3.271135   1.582801 H        1 UNL1     0.0342
     114 H         -2.788475   -3.62751   0.209264 H        1 UNL1     0.0342
     115 H         -1.967252   -1.88282   3.539632 H        1 UNL1     0.0234
     116 H         -0.455198   -1.496692   4.367512 H        1 UNL1     0.0234
     117 H         -1.746927   -0.301919   4.127512 H        1 UNL1     0.0234
     118 H         -3.216151   5.741627   2.400244 H        1 UNL1     0.0309
     119 H         -2.577772   7.033634   1.336641 H        1 UNL1     0.0309
     120 H         -2.228154   5.344394   1.042717 H        1 UNL1     0.0309
     121 H         -2.163795   1.401514   5.680053 H        1 UNL1     0.0524
     122 H         -2.932429   2.766758   4.860195 H        1 UNL1     0.0524
     123 H         -3.726751   1.172175   4.850053 H        1 UNL1     0.0524
@<TRIPOS>BOND
     1     1     2    1
     2     1    42    1
     3     2     3    2
     4     3     4    1
     5     4     5    2
     6     5     7    1
     7     6    75    1
     8     6    76    1
     9     6    77    1
    10     7     9   am
    11     9    10    1
    12    10    11    2
    13    10    43    1
    14    11    14    1
    15    11    15    1
    16    12    13   ar
    17    12    27   ar
    18    12    43    1
    19    13    14    1
    20    13    30   ar
    21    14    17    2
    22    15    16    1
    23    16    17    1
    24    16    18    1
    25    16    22    1
    26    18    19    1
    27    19    20    1
    28    20    21    1
    29    21    22    1
    30    23    24    1
    31    23    88    1
    32    23    89    1
    33    24    25    1
    34    24    26    1
    35    24    90    1
    36    25    91    1
    37    25    92    1
    38    25    93    1
    39    26    94    1
    40    26    95    1
    41    26    96    1
    42    27    28   ar
    43    28    29   ar
    44    29    30   ar
    45    29    31    1
    46    30    33    1
    47    31    32    1
    48    32    33    1
    49    32    35    1
    50    34    97    1
    51    34    98    1
    52    34    99    1
    53    35    61    1
    54    36    37    1
    55    36    60    1
    56    37    38    1
    57    38    39    1
    58    39    40    1
    59    40    41    1
    60    41    42    1
    61    45   100    1
    62    47   101    1
    63    47   102    1
    64    47   103    1
    65    48   104    1
    66    49   105    1
    67    49   106    1
    68    49   107    1
    69    50   108    1
    70    51    59    1
    71    52   109    1
    72    52   110    1
    73    52   111    1
    74    53    54    1
    75    54    55    2
    76    54    56    1
    77    56   112    1
    78    56   113    1
    79    56   114    1
    80    57   115    1
    81    57   116    1
    82    57   117    1
    83    58   118    1
    84    58   119    1
    85    58   120    1
    86    59   121    1
    87    59   122    1
    88    59   123    1
    89    60    61    2
    90     1    47    1
    91     1    62    1
    92     2    63    1
    93     3    64    1
    94     4    65    1
    95     5     6    1
    96     7     8    2
    97     9    78    1
    98    15    79    1
    99    18    80    1
   100    18    81    1
   101    19    82    1
   102    19    83    1
   103    20    23    1
   104    21    84    1
   105    21    85    1
   106    22    86    1
   107    22    87    1
   108    27    45    1
   109    28    34    1
   110    32    58    1
   111    33    46    2
   112    36    51    1
   113    36    66    1
   114    37    52    1
   115    37    67    1
   116    38    53    1
   117    38    68    1
   118    42    48    1
   119    42    72    1
   120    43    44    2
   121    60    73    1
   122    61    74    1
   123    39    69    1
   124    39    57    1
   125    40    70    1
   126    40    50    1
   127    41    71    1
   128    41    49    1
