@<TRIPOS>MOLECULE
*****
 123 128 0 0 0
SMALL
GASTEIGER

@<TRIPOS>ATOM
     1 C         5.143763   1.815552   0.50293 C.3        1 UNL1     0.0009
     2 C         6.56319   2.659908   -0.339286 C.2        1 UNL1     -0.0787
     3 C         7.845215   2.594812   -1.008779 C.2        1 UNL1     -0.0649
     4 C         8.697659   3.856278   -1.749318 C.2        1 UNL1     -0.0542
     5 C         9.709941   4.180664   -2.685874 C.2        1 UNL1     0.0115
     6 C         10.847768   3.588256   -3.562073 C.3        1 UNL1     -0.0348
     7 C         9.776086   5.673487   -3.272469 C.2        1 UNL1     0.2441
     8 O         10.585234   6.505313   -2.885337 O.2        1 UNL1     -0.2702
     9 N         9.019533   5.882068   -4.438776 N.am        1 UNL1     -0.2772
     10 C         7.730482   6.240307   -4.117324 C.2        1 UNL1     0.1049
     11 C         6.903723   5.249323   -3.836892 C.2        1 UNL1     0.0801
     12 C         6.405276   7.803118   -2.682476 C.ar        1 UNL1     0.0753
     13 C         5.66851   6.655208   -2.248787 C.ar        1 UNL1     0.0305
     14 C         5.808504   5.360749   -2.911982 C.2        1 UNL1     0.0924
     15 N         7.050914   3.925149   -4.01416 N.pl3        1 UNL1     -0.3170
     16 C         5.793219   3.298037   -3.705631 C.3        1 UNL1     0.1275
     17 N         5.141165   4.227853   -2.711654 N.2        1 UNL1     -0.2557
     18 C         4.936629   3.358085   -4.966722 C.3        1 UNL1     0.0016
     19 C         5.701726   2.703569   -6.105942 C.3        1 UNL1     0.0026
     20 N         5.998536   1.325715   -5.739265 N.3        1 UNL1     -0.3018
     21 C         6.767499   1.163017   -4.503711 C.3        1 UNL1     0.0026
     22 C         5.978404   1.823614   -3.371971 C.3        1 UNL1     0.0016
     23 C         6.455899   0.529701   -6.860793 C.3        1 UNL1     0.0012
     24 C         5.303177   0.271803   -7.843889 C.3        1 UNL1     -0.0339
     25 C         5.30733   1.290886   -8.995197 C.3        1 UNL1     -0.0615
     26 C         5.368396   -1.155087   -8.360137 C.3        1 UNL1     -0.0615
     27 C         6.178049   9.059357   -2.125386 C.ar        1 UNL1     0.1347
     28 C         5.21622   9.297875   -1.159961 C.ar        1 UNL1     0.0342
     29 C         4.537092   8.144339   -0.713527 C.ar        1 UNL1     0.1435
     30 C         4.779442   6.873588   -1.236669 C.ar        1 UNL1     0.0774
     31 O         3.496038   8.226812   0.143451 O.3        1 UNL1     -0.4436
     32 C         2.797313   6.982672   -0.013938 C.3        1 UNL1     0.3143
     33 C         3.827894   6.016045   -0.561433 C.2        1 UNL1     0.2504
     34 C         4.744795   10.649279   -0.700001 C.3        1 UNL1     -0.0327
     35 O         2.447845   6.521584   1.296986 O.2        1 UNL1     -0.4528
     36 C         -0.759235   4.534299   0.88054 C.3        1 UNL1     0.0854
     37 C         -1.04281   3.280396   -0.033154 C.3        1 UNL1     0.0236
     38 C         -1.617848   1.997791   0.738857 C.3        1 UNL1     0.1131
     39 C         -0.879377   1.463118   2.03155 C.3        1 UNL1     0.0200
     40 C         0.784341   1.348282   2.067495 C.3        1 UNL1     0.0661
     41 C         1.755383   0.613426   0.886531 C.3        1 UNL1     0.0091
     42 C         3.454613   1.015576   0.324129 C.3        1 UNL1     0.0661
     43 C         7.356567   7.62842   -3.807992 C.2        1 UNL1     0.2131
     44 O         7.737933   8.543447   -4.515115 O.2        1 UNL1     -0.2851
     45 O         6.96973   10.115627   -2.57145 O.3        1 UNL1     -0.5056
     46 O         3.866757   4.811373   -0.446946 O.2        1 UNL1     -0.2836
     47 C         5.551299   1.374282   1.934425 C.3        1 UNL1     -0.0566
     48 O         3.92976   -0.387822   0.38598 O.3        1 UNL1     -0.3909
     49 C         0.922964   0.381908   -0.354828 C.3        1 UNL1     -0.0577
     50 O         1.362446   2.571814   2.475525 O.3        1 UNL1     -0.3910
     51 O         -0.87666   4.323616   2.269516 O.3        1 UNL1     -0.3753
     52 C         0.001917   3.155109   -1.189786 C.3        1 UNL1     -0.0564
     53 O         -2.202839   0.959869   -0.173738 O.3        1 UNL1     -0.4608
     54 C         -2.399778   -0.358462   0.144299 C.2        1 UNL1     0.3042
     55 O         -1.810068   -1.334406   -0.317884 O.2        1 UNL1     -0.2512
     56 C         -3.423237   -0.570397   1.223341 C.3        1 UNL1     0.0332
     57 C         -1.610036   2.10141   3.303122 C.3        1 UNL1     -0.0567
     58 C         1.715308   7.222077   -1.092585 C.3        1 UNL1     0.0210
     59 C         -1.241091   5.479565   3.022403 C.3        1 UNL1     0.0372
     60 C         0.557208   5.191295   0.655824 C.2        1 UNL1     -0.0208
     61 C         1.46374   5.631872   1.529229 C.2        1 UNL1     0.0882
     62 H         4.649653   2.789343   0.604405 H        1 UNL1     0.0365
     63 H         6.277449   3.707005   -0.219249 H        1 UNL1     0.0576
     64 H         8.320441   1.639795   -1.24375 H        1 UNL1     0.0615
     65 H         8.194255   4.75761   -1.389224 H        1 UNL1     0.0622
     66 H         -1.518449   5.270806   0.581882 H        1 UNL1     0.0645
     67 H         -1.915366   3.581636   -0.638514 H        1 UNL1     0.0362
     68 H         -2.572167   2.412021   1.098318 H        1 UNL1     0.0741
     69 H         -1.191434   0.443432   2.213944 H        1 UNL1     0.0359
     70 H         0.910444   0.678375   2.939494 H        1 UNL1     0.0600
     71 H         1.819067   -0.41239   1.299572 H        1 UNL1     0.0348
     72 H         3.341764   1.488483   1.310506 H        1 UNL1     0.0602
     73 H         0.669079   5.404649   -0.378203 H        1 UNL1     0.0628
     74 H         1.452526   5.406545   2.596159 H        1 UNL1     0.1022
     75 H         10.913321   2.48205   -3.424067 H        1 UNL1     0.0279
     76 H         10.730206   3.683394   -4.639197 H        1 UNL1     0.0279
     77 H         11.847672   3.907373   -3.233352 H        1 UNL1     0.0279
     78 H         8.972702   5.018245   -4.975147 H        1 UNL1     0.1553
     79 H         7.722724   3.518077   -4.638577 H        1 UNL1     0.1484
     80 H         3.985162   2.846606   -4.777333 H        1 UNL1     0.0317
     81 H         4.690005   4.393947   -5.22327 H        1 UNL1     0.0317
     82 H         6.621703   3.255553   -6.348573 H        1 UNL1     0.0428
     83 H         5.073669   2.758941   -6.995621 H        1 UNL1     0.0428
     84 H         6.908055   0.118447   -4.208874 H        1 UNL1     0.0428
     85 H         7.790272   1.551705   -4.604585 H        1 UNL1     0.0428
     86 H         6.501451   1.570811   -2.468367 H        1 UNL1     0.0317
     87 H         5.008375   1.326017   -3.251405 H        1 UNL1     0.0317
     88 H         7.240481   1.093403   -7.382295 H        1 UNL1     0.0429
     89 H         6.906943   -0.412409   -6.523506 H        1 UNL1     0.0429
     90 H         4.349666   0.353425   -7.308756 H        1 UNL1     0.0308
     91 H         6.255716   1.271122   -9.540427 H        1 UNL1     0.0233
     92 H         4.489295   1.090767   -9.69117 H        1 UNL1     0.0233
     93 H         5.164314   2.319599   -8.642874 H        1 UNL1     0.0233
     94 H         4.672815   -1.28648   -9.196043 H        1 UNL1     0.0233
     95 H         6.376379   -1.37562   -8.722489 H        1 UNL1     0.0233
     96 H         5.10904   -1.874525   -7.578401 H        1 UNL1     0.0233
     97 H         3.954176   10.574658   0.040664 H        1 UNL1     0.0280
     98 H         5.547746   11.228142   -0.225193 H        1 UNL1     0.0280
     99 H         4.358655   11.218334   -1.561493 H        1 UNL1     0.0280
     100 H         6.487979   10.861344   -2.883612 H        1 UNL1     0.2922
     101 H         4.6979   0.917752   2.435372 H        1 UNL1     0.0236
     102 H         5.988174   2.180101   2.523305 H        1 UNL1     0.0236
     103 H         6.322473   0.586054   1.921013 H        1 UNL1     0.0236
     104 H         4.354782   -0.517234   1.25637 H        1 UNL1     0.2098
     105 H         0.712488   1.280991   -0.928553 H        1 UNL1     0.0234
     106 H         1.292382   -0.406652   -1.010291 H        1 UNL1     0.0234
     107 H         0.0   -0.0   0.0 H        1 UNL1     0.0234
     108 H         1.147633   3.236149   1.792677 H        1 UNL1     0.2098
     109 H         1.029545   3.055815   -0.813176 H        1 UNL1     0.0234
     110 H         -0.216473   2.332993   -1.879839 H        1 UNL1     0.0234
     111 H         0.005085   4.046859   -1.830659 H        1 UNL1     0.0234
     112 H         -3.528102   -1.639415   1.432026 H        1 UNL1     0.0342
     113 H         -3.183082   -0.017048   2.129969 H        1 UNL1     0.0342
     114 H         -4.390953   -0.202581   0.855373 H        1 UNL1     0.0342
     115 H         -2.668855   1.812356   3.353513 H        1 UNL1     0.0234
     116 H         -1.151551   1.83653   4.25794 H        1 UNL1     0.0234
     117 H         -1.691278   3.201085   3.257775 H        1 UNL1     0.0234
     118 H         0.806175   7.686376   -0.671978 H        1 UNL1     0.0309
     119 H         2.071693   7.828219   -1.931504 H        1 UNL1     0.0309
     120 H         1.343352   6.288774   -1.529277 H        1 UNL1     0.0309
     121 H         -0.450866   6.218872   2.894625 H        1 UNL1     0.0524
     122 H         -2.180642   5.932722   2.664731 H        1 UNL1     0.0524
     123 H         -1.349938   5.225001   4.072852 H        1 UNL1     0.0524
@<TRIPOS>BOND
     1     1     2    1
     2     1    42    1
     3     2     3    2
     4     3     4    1
     5     4     5    2
     6     5     7    1
     7     6    75    1
     8     6    76    1
     9     6    77    1
    10     7     9   am
    11     9    10    1
    12    10    11    2
    13    10    43    1
    14    11    14    1
    15    11    15    1
    16    12    13   ar
    17    12    27   ar
    18    12    43    1
    19    13    14    1
    20    13    30   ar
    21    14    17    2
    22    15    16    1
    23    16    17    1
    24    16    18    1
    25    16    22    1
    26    18    19    1
    27    19    20    1
    28    20    21    1
    29    21    22    1
    30    23    24    1
    31    23    88    1
    32    23    89    1
    33    24    25    1
    34    24    26    1
    35    24    90    1
    36    25    91    1
    37    25    92    1
    38    25    93    1
    39    26    94    1
    40    26    95    1
    41    26    96    1
    42    27    28   ar
    43    28    29   ar
    44    29    30   ar
    45    29    31    1
    46    30    33    1
    47    31    32    1
    48    32    33    1
    49    32    35    1
    50    34    97    1
    51    34    98    1
    52    34    99    1
    53    35    61    1
    54    36    37    1
    55    36    60    1
    56    37    38    1
    57    38    39    1
    58    39    40    1
    59    40    41    1
    60    41    42    1
    61    45   100    1
    62    47   101    1
    63    47   102    1
    64    47   103    1
    65    48   104    1
    66    49   105    1
    67    49   106    1
    68    49   107    1
    69    50   108    1
    70    51    59    1
    71    52   109    1
    72    52   110    1
    73    52   111    1
    74    53    54    1
    75    54    55    2
    76    54    56    1
    77    56   112    1
    78    56   113    1
    79    56   114    1
    80    57   115    1
    81    57   116    1
    82    57   117    1
    83    58   118    1
    84    58   119    1
    85    58   120    1
    86    59   121    1
    87    59   122    1
    88    59   123    1
    89    60    61    2
    90     1    47    1
    91     1    62    1
    92     2    63    1
    93     3    64    1
    94     4    65    1
    95     5     6    1
    96     7     8    2
    97     9    78    1
    98    15    79    1
    99    18    80    1
   100    18    81    1
   101    19    82    1
   102    19    83    1
   103    20    23    1
   104    21    84    1
   105    21    85    1
   106    22    86    1
   107    22    87    1
   108    27    45    1
   109    28    34    1
   110    32    58    1
   111    33    46    2
   112    36    51    1
   113    36    66    1
   114    37    52    1
   115    37    67    1
   116    38    53    1
   117    38    68    1
   118    42    48    1
   119    42    72    1
   120    43    44    2
   121    60    73    1
   122    61    74    1
   123    39    69    1
   124    39    57    1
   125    40    70    1
   126    40    50    1
   127    41    71    1
   128    41    49    1
