@<TRIPOS>MOLECULE
*****
 123 128 0 0 0
SMALL
GASTEIGER

@<TRIPOS>ATOM
     1 C         -3.065689   -0.4368   -2.895127 C.3        1 UNL1     0.0009
     2 C         -3.083722   -1.571113   -4.36143 C.2        1 UNL1     -0.0787
     3 C         -2.971399   -1.779479   -5.789721 C.2        1 UNL1     -0.0649
     4 C         -2.965069   -3.24952   -6.62954 C.2        1 UNL1     -0.0542
     5 C         -2.609944   -3.893322   -7.840525 C.2        1 UNL1     0.0115
     6 C         -2.125056   -3.65224   -9.296576 C.3        1 UNL1     -0.0348
     7 C         -2.49347   -5.494217   -7.864112 C.2        1 UNL1     0.2441
     8 O         -3.36101   -6.217669   -8.333707 O.2        1 UNL1     -0.2702
     9 N         -1.219057   -5.99674   -7.548688 N.am        1 UNL1     -0.2772
     10 C         -1.094381   -6.170705   -6.189455 C.2        1 UNL1     0.1049
     11 C         -0.771354   -5.096474   -5.492388 C.2        1 UNL1     0.0801
     12 C         -2.247186   -7.160658   -4.202405 C.ar        1 UNL1     0.0753
     13 C         -2.055195   -5.896392   -3.559457 C.ar        1 UNL1     0.0305
     14 C         -1.194246   -4.866954   -4.137449 C.2        1 UNL1     0.0924
     15 N         -0.336322   -3.894937   -5.909023 N.pl3        1 UNL1     -0.3170
     16 C         0.036955   -3.135129   -4.745576 C.3        1 UNL1     0.1275
     17 N         -0.826182   -3.690127   -3.638917 N.2        1 UNL1     -0.2557
     18 C         1.471769   -3.518571   -4.396314 C.3        1 UNL1     0.0016
     19 C         2.350104   -3.275447   -5.613281 C.3        1 UNL1     0.0026
     20 N         2.258598   -1.869728   -5.982887 N.3        1 UNL1     -0.3018
     21 C         0.906391   -1.391097   -6.277534 C.3        1 UNL1     0.0026
     22 C         0.042459   -1.640892   -5.04015 C.3        1 UNL1     0.0016
     23 C         3.276467   -1.469228   -6.933774 C.3        1 UNL1     0.0012
     24 C         4.492746   -0.878019   -6.203778 C.3        1 UNL1     -0.0339
     25 C         4.081504   -0.190746   -4.891303 C.3        1 UNL1     -0.0615
     26 C         5.533648   -1.958358   -5.966773 C.3        1 UNL1     -0.0615
     27 C         -2.970582   -8.180256   -3.588209 C.ar        1 UNL1     0.1347
     28 C         -3.513296   -8.067345   -2.320627 C.ar        1 UNL1     0.0342
     29 C         -3.353542   -6.797163   -1.727096 C.ar        1 UNL1     0.1435
     30 C         -2.66243   -5.754504   -2.345518 C.ar        1 UNL1     0.0774
     31 O         -3.729923   -6.56323   -0.450922 O.3        1 UNL1     -0.4436
     32 C         -3.004513   -5.384727   -0.069107 C.3        1 UNL1     0.3143
     33 C         -2.674631   -4.683362   -1.371212 C.2        1 UNL1     0.2504
     34 C         -4.079933   -9.192811   -1.500659 C.3        1 UNL1     -0.0327
     35 O         -3.914023   -4.536643   0.64279 O.2        1 UNL1     -0.4528
     36 C         -1.79766   -2.586084   3.117546 C.3        1 UNL1     0.0854
     37 C         -0.560612   -1.645914   2.846779 C.3        1 UNL1     0.0236
     38 C         -0.697128   -0.161917   3.439115 C.3        1 UNL1     0.1131
     39 C         -1.994023   0.689989   3.131563 C.3        1 UNL1     0.0200
     40 C         -2.642408   0.71697   1.594908 C.3        1 UNL1     0.0661
     41 C         -1.786666   1.012767   0.160398 C.3        1 UNL1     0.0091
     42 C         -2.049365   0.367374   -1.536617 C.3        1 UNL1     0.0661
     43 C         -1.574651   -7.381317   -5.506731 C.2        1 UNL1     0.2131
     44 O         -1.327484   -8.484795   -5.958376 O.2        1 UNL1     -0.2851
     45 O         -3.149727   -9.363905   -4.301174 O.3        1 UNL1     -0.5056
     46 O         -2.486363   -3.503121   -1.56471 O.2        1 UNL1     -0.2836
     47 C         -4.380813   0.385775   -2.833469 C.3        1 UNL1     -0.0566
     48 O         -1.933462   1.697019   -2.182937 O.3        1 UNL1     -0.3909
     49 C         -0.304945   0.911784   0.446406 C.3        1 UNL1     -0.0577
     50 O         -3.537925   -0.360768   1.409828 O.3        1 UNL1     -0.3910
     51 O         -2.929742   -1.966555   3.685 O.3        1 UNL1     -0.3753
     52 C         0.090739   -1.928143   1.453567 C.3        1 UNL1     -0.0564
     53 O         0.601258   0.589557   3.481606 O.3        1 UNL1     -0.4608
     54 C         0.753995   1.927854   3.229491 C.2        1 UNL1     0.3042
     55 O         1.707146   2.642006   3.538241 O.2        1 UNL1     -0.2512
     56 C         -0.374502   2.523055   2.43643 C.3        1 UNL1     0.0332
     57 C         -2.99891   0.499672   4.361261 C.3        1 UNL1     -0.0567
     58 C         -1.689299   -5.872403   0.581979 C.3        1 UNL1     0.0210
     59 C         -3.170222   -2.294706   5.052609 C.3        1 UNL1     0.0372
     60 C         -2.275574   -3.352804   1.934796 C.2        1 UNL1     -0.0208
     61 C         -3.512857   -3.564444   1.484148 C.2        1 UNL1     0.0882
     62 H         -3.210277   -1.307369   -2.244038 H        1 UNL1     0.0365
     63 H         -3.344164   -2.517726   -3.883347 H        1 UNL1     0.0576
     64 H         -2.705924   -0.96536   -6.467837 H        1 UNL1     0.0615
     65 H         -3.316914   -3.973758   -5.889833 H        1 UNL1     0.0622
     66 H         -1.42473   -3.334316   3.831071 H        1 UNL1     0.0645
     67 H         0.238241   -2.063844   3.483746 H        1 UNL1     0.0362
     68 H         -0.750192   -0.396726   4.51316 H        1 UNL1     0.0741
     69 H         -1.776574   1.733675   3.315527 H        1 UNL1     0.0359
     70 H         -3.294632   1.60727   1.678753 H        1 UNL1     0.0600
     71 H         -1.917872   2.109689   0.079747 H        1 UNL1     0.0348
     72 H         -2.99939   0.215512   -1.003978 H        1 UNL1     0.0602
     73 H         -1.45658   -3.869258   1.499167 H        1 UNL1     0.0628
     74 H         -4.39704   -3.032451   1.83691 H        1 UNL1     0.1022
     75 H         -1.218023   -4.26614   -9.514413 H        1 UNL1     0.0279
     76 H         -2.806117   -3.950699   -10.090395 H        1 UNL1     0.0279
     77 H         -1.740416   -2.63386   -9.453593 H        1 UNL1     0.0279
     78 H         -0.506969   -5.329749   -7.838742 H        1 UNL1     0.1553
     79 H         0.059367   -3.729745   -6.816258 H        1 UNL1     0.1484
     80 H         1.802547   -2.921495   -3.537913 H        1 UNL1     0.0317
     81 H         1.532733   -4.568395   -4.090042 H        1 UNL1     0.0317
     82 H         2.068481   -3.925171   -6.454982 H        1 UNL1     0.0428
     83 H         3.368264   -3.557032   -5.342894 H        1 UNL1     0.0428
     84 H         0.854856   -0.315671   -6.474043 H        1 UNL1     0.0428
     85 H         0.500568   -1.848843   -7.190273 H        1 UNL1     0.0428
     86 H         -0.89734   -1.16108   -5.241508 H        1 UNL1     0.0317
     87 H         0.437921   -1.07643   -4.186869 H        1 UNL1     0.0317
     88 H         3.599563   -2.362245   -7.484614 H        1 UNL1     0.0429
     89 H         2.876227   -0.762962   -7.672536 H        1 UNL1     0.0429
     90 H         4.973993   -0.135243   -6.851001 H        1 UNL1     0.0308
     91 H         3.939421   0.884805   -5.033097 H        1 UNL1     0.0233
     92 H         3.158921   -0.625862   -4.499994 H        1 UNL1     0.0233
     93 H         4.834613   -0.310965   -4.103134 H        1 UNL1     0.0233
     94 H         6.388515   -1.545771   -5.420138 H        1 UNL1     0.0233
     95 H         5.105279   -2.764172   -5.364173 H        1 UNL1     0.0233
     96 H         5.895986   -2.377133   -6.909804 H        1 UNL1     0.0233
     97 H         -3.563984   -9.305545   -0.551808 H        1 UNL1     0.0280
     98 H         -5.136721   -9.031495   -1.250795 H        1 UNL1     0.0280
     99 H         -3.98756   -10.138894   -2.058772 H        1 UNL1     0.0280
     100 H         -3.194289   -9.255602   -5.234934 H        1 UNL1     0.2922
     101 H         -5.195865   -0.19068   -3.270557 H        1 UNL1     0.0236
     102 H         -4.290325   1.373243   -3.284804 H        1 UNL1     0.0236
     103 H         -4.699981   0.579283   -1.795741 H        1 UNL1     0.0236
     104 H         -1.665155   2.337026   -1.494916 H        1 UNL1     0.2098
     105 H         0.291616   1.710435   0.01272 H        1 UNL1     0.0234
     106 H         -0.052173   0.780008   1.498389 H        1 UNL1     0.0234
     107 H         0.0   0.0   0.0 H        1 UNL1     0.0234
     108 H         -3.911556   -0.276484   0.51146 H        1 UNL1     0.2098
     109 H         0.464926   -2.958074   1.370286 H        1 UNL1     0.0234
     110 H         -0.578693   -1.712486   0.613867 H        1 UNL1     0.0234
     111 H         0.959561   -1.280845   1.274401 H        1 UNL1     0.0234
     112 H         -1.208192   2.767882   3.101536 H        1 UNL1     0.0342
     113 H         -0.059192   3.396346   1.867409 H        1 UNL1     0.0342
     114 H         -0.725907   1.767946   1.719848 H        1 UNL1     0.0342
     115 H         -3.579122   1.411413   4.559425 H        1 UNL1     0.0234
     116 H         -3.708828   -0.319652   4.231745 H        1 UNL1     0.0234
     117 H         -2.487892   0.357726   5.329069 H        1 UNL1     0.0234
     118 H         -1.667973   -5.678708   1.668733 H        1 UNL1     0.0309
     119 H         -1.489209   -6.933655   0.403343 H        1 UNL1     0.0309
     120 H         -0.811334   -5.331795   0.211808 H        1 UNL1     0.0309
     121 H         -3.976596   -3.027111   5.079049 H        1 UNL1     0.0524
     122 H         -2.290048   -2.7525   5.534019 H        1 UNL1     0.0524
     123 H         -3.453325   -1.40528   5.608367 H        1 UNL1     0.0524
@<TRIPOS>BOND
     1     1     2    1
     2     1    42    1
     3     2     3    2
     4     3     4    1
     5     4     5    2
     6     5     7    1
     7     6    75    1
     8     6    76    1
     9     6    77    1
    10     7     9   am
    11     9    10    1
    12    10    11    2
    13    10    43    1
    14    11    14    1
    15    11    15    1
    16    12    13   ar
    17    12    27   ar
    18    12    43    1
    19    13    14    1
    20    13    30   ar
    21    14    17    2
    22    15    16    1
    23    16    17    1
    24    16    18    1
    25    16    22    1
    26    18    19    1
    27    19    20    1
    28    20    21    1
    29    21    22    1
    30    23    24    1
    31    23    88    1
    32    23    89    1
    33    24    25    1
    34    24    26    1
    35    24    90    1
    36    25    91    1
    37    25    92    1
    38    25    93    1
    39    26    94    1
    40    26    95    1
    41    26    96    1
    42    27    28   ar
    43    28    29   ar
    44    29    30   ar
    45    29    31    1
    46    30    33    1
    47    31    32    1
    48    32    33    1
    49    32    35    1
    50    34    97    1
    51    34    98    1
    52    34    99    1
    53    35    61    1
    54    36    37    1
    55    36    60    1
    56    37    38    1
    57    38    39    1
    58    39    40    1
    59    40    41    1
    60    41    42    1
    61    45   100    1
    62    47   101    1
    63    47   102    1
    64    47   103    1
    65    48   104    1
    66    49   105    1
    67    49   106    1
    68    49   107    1
    69    50   108    1
    70    51    59    1
    71    52   109    1
    72    52   110    1
    73    52   111    1
    74    53    54    1
    75    54    55    2
    76    54    56    1
    77    56   112    1
    78    56   113    1
    79    56   114    1
    80    57   115    1
    81    57   116    1
    82    57   117    1
    83    58   118    1
    84    58   119    1
    85    58   120    1
    86    59   121    1
    87    59   122    1
    88    59   123    1
    89    60    61    2
    90     1    47    1
    91     1    62    1
    92     2    63    1
    93     3    64    1
    94     4    65    1
    95     5     6    1
    96     7     8    2
    97     9    78    1
    98    15    79    1
    99    18    80    1
   100    18    81    1
   101    19    82    1
   102    19    83    1
   103    20    23    1
   104    21    84    1
   105    21    85    1
   106    22    86    1
   107    22    87    1
   108    27    45    1
   109    28    34    1
   110    32    58    1
   111    33    46    2
   112    36    51    1
   113    36    66    1
   114    37    52    1
   115    37    67    1
   116    38    53    1
   117    38    68    1
   118    42    48    1
   119    42    72    1
   120    43    44    2
   121    60    73    1
   122    61    74    1
   123    39    69    1
   124    39    57    1
   125    40    70    1
   126    40    50    1
   127    41    71    1
   128    41    49    1
