@<TRIPOS>MOLECULE
*****
 123 128 0 0 0
SMALL
GASTEIGER

@<TRIPOS>ATOM
     1 C         5.123034   1.840926   0.603973 C.3        1 UNL1     0.0009
     2 C         6.560248   2.680561   -0.212401 C.2        1 UNL1     -0.0787
     3 C         7.856207   2.611706   -0.854114 C.2        1 UNL1     -0.0649
     4 C         8.7245   3.869061   -1.583142 C.2        1 UNL1     -0.0542
     5 C         9.756547   4.188273   -2.49969 C.2        1 UNL1     0.0115
     6 C         10.912615   3.591015   -3.348285 C.3        1 UNL1     -0.0348
     7 C         9.8355   5.677903   -3.092781 C.2        1 UNL1     0.2441
     8 O         10.636424   6.51171   -2.693015 O.2        1 UNL1     -0.2702
     9 N         9.103972   5.880281   -4.276023 N.am        1 UNL1     -0.2772
     10 C         7.808458   6.2404   -3.983995 C.2        1 UNL1     0.1049
     11 C         6.975692   5.251039   -3.715875 C.2        1 UNL1     0.0801
     12 C         6.453398   7.81108   -2.586101 C.ar        1 UNL1     0.0753
     13 C         5.707309   6.665612   -2.162 C.ar        1 UNL1     0.0305
     14 C         5.861076   5.367579   -2.815083 C.2        1 UNL1     0.0924
     15 N         7.126313   3.925911   -3.882835 N.pl3        1 UNL1     -0.3170
     16 C         5.862196   3.300619   -3.597751 C.3        1 UNL1     0.1275
     17 N         5.189364   4.235858   -2.622892 N.2        1 UNL1     -0.2557
     18 C         5.032634   3.353966   -4.87708 C.3        1 UNL1     0.0016
     19 C         5.821636   2.693227   -5.996227 C.3        1 UNL1     0.0026
     20 N         6.110261   1.317336   -5.6159 N.3        1 UNL1     -0.3018
     21 C         6.852734   1.161213   -4.363412 C.3        1 UNL1     0.0026
     22 C         6.039901   1.827995   -3.252287 C.3        1 UNL1     0.0016
     23 C         6.591188   0.515232   -6.723141 C.3        1 UNL1     0.0012
     24 C         5.459576   0.252172   -7.729128 C.3        1 UNL1     -0.0339
     25 C         5.488451   1.265031   -8.885562 C.3        1 UNL1     -0.0615
     26 C         5.53543   -1.177489   -8.236176 C.3        1 UNL1     -0.0615
     27 C         6.214665   9.070332   -2.040747 C.ar        1 UNL1     0.1347
     28 C         5.232576   9.314164   -1.097297 C.ar        1 UNL1     0.0342
     29 C         4.543839   8.163132   -0.659199 C.ar        1 UNL1     0.1435
     30 C         4.796967   6.88955   -1.170212 C.ar        1 UNL1     0.0774
     31 O         3.484813   8.250347   0.174986 O.3        1 UNL1     -0.4436
     32 C         2.789306   7.005458   0.009478 C.3        1 UNL1     0.3143
     33 C         3.831074   6.035773   -0.510756 C.2        1 UNL1     0.2504
     34 C         4.751788   10.668085   -0.654757 C.3        1 UNL1     -0.0327
     35 O         2.411929   6.551487   1.315138 O.2        1 UNL1     -0.4528
     36 C         -0.786029   4.562361   0.841289 C.3        1 UNL1     0.0854
     37 C         -1.050398   3.303582   -0.071459 C.3        1 UNL1     0.0236
     38 C         -1.642023   2.025227   0.695047 C.3        1 UNL1     0.1131
     39 C         -0.931336   1.497446   2.006016 C.3        1 UNL1     0.0200
     40 C         0.731215   1.38261   2.077957 C.3        1 UNL1     0.0661
     41 C         1.726983   0.641283   0.921891 C.3        1 UNL1     0.0091
     42 C         3.437883   1.040195   0.393599 C.3        1 UNL1     0.0661
     43 C         7.428371   7.630204   -3.690171 C.2        1 UNL1     0.2131
     44 O         7.824902   8.54136   -4.393943 O.2        1 UNL1     -0.2851
     45 O         7.015899   10.124088   -2.475557 O.3        1 UNL1     -0.5056
     46 O         3.867214   4.831731   -0.38898 O.2        1 UNL1     -0.2836
     47 C         5.49993   1.407333   2.046168 C.3        1 UNL1     -0.0566
     48 O         3.911283   -0.362904   0.473103 O.3        1 UNL1     -0.3909
     49 C         0.921101   0.403172   -0.335627 C.3        1 UNL1     -0.0577
     50 O         1.300794   2.608256   2.491592 O.3        1 UNL1     -0.3910
     51 O         -0.933017   4.359185   2.228569 O.3        1 UNL1     -0.3753
     52 C         0.018663   3.171938   -1.204917 C.3        1 UNL1     -0.0564
     53 O         -2.207712   0.982467   -0.224178 O.3        1 UNL1     -0.4608
     54 C         -2.42392   -0.33113   0.100856 C.2        1 UNL1     0.3042
     55 O         -1.827882   -1.315899   -0.333663 O.2        1 UNL1     -0.2512
     56 C         -3.480861   -0.524793   1.150658 C.3        1 UNL1     0.0332
     57 C         -1.688726   2.142671   3.258302 C.3        1 UNL1     -0.0567
     58 C         1.730542   7.239171   -1.093213 C.3        1 UNL1     0.0210
     59 C         -1.31311   5.519219   2.967294 C.3        1 UNL1     0.0372
     60 C         0.535047   5.217981   0.641087 C.2        1 UNL1     -0.0208
     61 C         1.422901   5.663155   1.531188 C.2        1 UNL1     0.0882
     62 H         4.627103   2.815308   0.689666 H        1 UNL1     0.0365
     63 H         6.272261   3.728324   -0.104113 H        1 UNL1     0.0576
     64 H         8.336101   1.65538   -1.073775 H        1 UNL1     0.0615
     65 H         8.213761   4.772381   -1.238699 H        1 UNL1     0.0622
     66 H         -1.538549   5.297336   0.522586 H        1 UNL1     0.0645
     67 H         -1.909812   3.601656   -0.696856 H        1 UNL1     0.0362
     68 H         -2.603675   2.4415   1.031892 H        1 UNL1     0.0741
     69 H         -1.247438   0.478794   2.187224 H        1 UNL1     0.0359
     70 H         0.838588   0.7174   2.956039 H        1 UNL1     0.0600
     71 H         1.781631   -0.382298   1.341714 H        1 UNL1     0.0348
     72 H         3.304192   1.518428   1.374789 H        1 UNL1     0.0602
     73 H         0.668934   5.425744   -0.391462 H        1 UNL1     0.0628
     74 H         1.388946   5.443586   2.598837 H        1 UNL1     0.1022
     75 H         10.974962   2.485562   -3.202957 H        1 UNL1     0.0279
     76 H         10.818011   3.680358   -4.428163 H        1 UNL1     0.0279
     77 H         11.905375   3.911784   -3.000095 H        1 UNL1     0.0279
     78 H         9.068358   5.013583   -4.808606 H        1 UNL1     0.1553
     79 H         7.811157   3.515399   -4.490619 H        1 UNL1     0.1484
     80 H         4.077237   2.843628   -4.705218 H        1 UNL1     0.0317
     81 H         4.791763   4.388459   -5.144394 H        1 UNL1     0.0317
     82 H         6.746693   3.243787   -6.222206 H        1 UNL1     0.0428
     83 H         5.212656   2.743875   -6.899348 H        1 UNL1     0.0428
     84 H         6.986745   0.118231   -4.060027 H        1 UNL1     0.0428
     85 H         7.877511   1.549231   -4.444603 H        1 UNL1     0.0428
     86 H         6.543553   1.580007   -2.336414 H        1 UNL1     0.0317
     87 H         5.067411   1.331169   -3.149701 H        1 UNL1     0.0317
     88 H         7.386815   1.076022   -7.230868 H        1 UNL1     0.0429
     89 H         7.034739   -0.425098   -6.371265 H        1 UNL1     0.0429
     90 H         4.494918   0.33679   -7.214844 H        1 UNL1     0.0308
     91 H         6.449322   1.244402   -9.408441 H        1 UNL1     0.0233
     92 H         4.687269   1.059366   -9.599297 H        1 UNL1     0.0233
     93 H         5.335141   2.295315   -8.542275 H        1 UNL1     0.0233
     94 H         4.857754   -1.313306   -9.085967 H        1 UNL1     0.0233
     95 H         6.55084   -1.400091   -8.575813 H        1 UNL1     0.0233
     96 H         5.259339   -1.89267   -7.456267 H        1 UNL1     0.0233
     97 H         3.945579   10.597551   0.069316 H        1 UNL1     0.0280
     98 H         5.544594   11.249406   -0.166105 H        1 UNL1     0.0280
     99 H         4.38419   11.232531   -1.52732 H        1 UNL1     0.0280
     100 H         6.541057   10.868425   -2.801305 H        1 UNL1     0.2922
     101 H         4.635965   0.953612   2.531304 H        1 UNL1     0.0236
     102 H         5.924369   2.216265   2.639856 H        1 UNL1     0.0236
     103 H         6.271033   0.618954   2.05341 H        1 UNL1     0.0236
     104 H         4.316399   -0.488069   1.353549 H        1 UNL1     0.2098
     105 H         0.702536   1.302463   -0.905991 H        1 UNL1     0.0234
     106 H         1.317681   -0.37251   -0.990583 H        1 UNL1     0.0234
     107 H         0.0   -0.0   0.0 H        1 UNL1     0.0234
     108 H         1.103748   3.268079   1.799078 H        1 UNL1     0.2098
     109 H         1.038025   3.074556   -0.806006 H        1 UNL1     0.0234
     110 H         -0.185192   2.346138   -1.895019 H        1 UNL1     0.0234
     111 H         0.035668   4.060219   -1.850374 H        1 UNL1     0.0234
     112 H         -3.597701   -1.590647   1.368945 H        1 UNL1     0.0342
     113 H         -3.265484   0.038415   2.057439 H        1 UNL1     0.0342
     114 H         -4.434963   -0.156736   0.748927 H        1 UNL1     0.0342
     115 H         -2.75402   1.874172   3.27396 H        1 UNL1     0.0234
     116 H         -1.26546   1.863383   4.225201 H        1 UNL1     0.0234
     117 H         -1.74712   3.24397   3.217416 H        1 UNL1     0.0234
     118 H         0.812776   7.705837   -0.694546 H        1 UNL1     0.0309
     119 H         2.104829   7.840738   -1.927616 H        1 UNL1     0.0309
     120 H         1.367741   6.30357   -1.532682 H        1 UNL1     0.0309
     121 H         -0.520176   6.257734   2.852371 H        1 UNL1     0.0524
     122 H         -2.244737   5.970552   2.587283 H        1 UNL1     0.0524
     123 H         -1.444333   5.270336   4.016547 H        1 UNL1     0.0524
@<TRIPOS>BOND
     1     1     2    1
     2     1    42    1
     3     2     3    2
     4     3     4    1
     5     4     5    2
     6     5     7    1
     7     6    75    1
     8     6    76    1
     9     6    77    1
    10     7     9   am
    11     9    10    1
    12    10    11    2
    13    10    43    1
    14    11    14    1
    15    11    15    1
    16    12    13   ar
    17    12    27   ar
    18    12    43    1
    19    13    14    1
    20    13    30   ar
    21    14    17    2
    22    15    16    1
    23    16    17    1
    24    16    18    1
    25    16    22    1
    26    18    19    1
    27    19    20    1
    28    20    21    1
    29    21    22    1
    30    23    24    1
    31    23    88    1
    32    23    89    1
    33    24    25    1
    34    24    26    1
    35    24    90    1
    36    25    91    1
    37    25    92    1
    38    25    93    1
    39    26    94    1
    40    26    95    1
    41    26    96    1
    42    27    28   ar
    43    28    29   ar
    44    29    30   ar
    45    29    31    1
    46    30    33    1
    47    31    32    1
    48    32    33    1
    49    32    35    1
    50    34    97    1
    51    34    98    1
    52    34    99    1
    53    35    61    1
    54    36    37    1
    55    36    60    1
    56    37    38    1
    57    38    39    1
    58    39    40    1
    59    40    41    1
    60    41    42    1
    61    45   100    1
    62    47   101    1
    63    47   102    1
    64    47   103    1
    65    48   104    1
    66    49   105    1
    67    49   106    1
    68    49   107    1
    69    50   108    1
    70    51    59    1
    71    52   109    1
    72    52   110    1
    73    52   111    1
    74    53    54    1
    75    54    55    2
    76    54    56    1
    77    56   112    1
    78    56   113    1
    79    56   114    1
    80    57   115    1
    81    57   116    1
    82    57   117    1
    83    58   118    1
    84    58   119    1
    85    58   120    1
    86    59   121    1
    87    59   122    1
    88    59   123    1
    89    60    61    2
    90     1    47    1
    91     1    62    1
    92     2    63    1
    93     3    64    1
    94     4    65    1
    95     5     6    1
    96     7     8    2
    97     9    78    1
    98    15    79    1
    99    18    80    1
   100    18    81    1
   101    19    82    1
   102    19    83    1
   103    20    23    1
   104    21    84    1
   105    21    85    1
   106    22    86    1
   107    22    87    1
   108    27    45    1
   109    28    34    1
   110    32    58    1
   111    33    46    2
   112    36    51    1
   113    36    66    1
   114    37    52    1
   115    37    67    1
   116    38    53    1
   117    38    68    1
   118    42    48    1
   119    42    72    1
   120    43    44    2
   121    60    73    1
   122    61    74    1
   123    39    69    1
   124    39    57    1
   125    40    70    1
   126    40    50    1
   127    41    71    1
   128    41    49    1
