@<TRIPOS>MOLECULE
*****
 123 128 0 0 0
SMALL
GASTEIGER

@<TRIPOS>ATOM
     1 C         5.166937   1.749761   0.490279 C.3        1 UNL1     0.0009
     2 C         6.603206   2.55641   -0.3603 C.2        1 UNL1     -0.0787
     3 C         7.884913   2.458681   -1.026426 C.2        1 UNL1     -0.0649
     4 C         8.761878   3.6942   -1.781926 C.2        1 UNL1     -0.0542
     5 C         9.781569   3.987321   -2.720749 C.2        1 UNL1     0.0115
     6 C         10.90965   3.362356   -3.586875 C.3        1 UNL1     -0.0348
     7 C         9.876416   5.470764   -3.326875 C.2        1 UNL1     0.2441
     8 O         10.700233   6.292484   -2.949214 O.2        1 UNL1     -0.2702
     9 N         9.125811   5.677893   -4.497277 N.am        1 UNL1     -0.2772
     10 C         7.843104   6.064213   -4.183044 C.2        1 UNL1     0.1049
     11 C         6.99761   5.09254   -3.891132 C.2        1 UNL1     0.0801
     12 C         6.544778   7.6702   -2.771489 C.ar        1 UNL1     0.0753
     13 C         5.78609   6.542   -2.324089 C.ar        1 UNL1     0.0305
     14 C         5.903113   5.236501   -2.969868 C.2        1 UNL1     0.0924
     15 N         7.120468   3.763631   -4.050621 N.pl3        1 UNL1     -0.3170
     16 C         5.850828   3.164104   -3.736241 C.3        1 UNL1     0.1275
     17 N         5.214508   4.118934   -2.755874 N.2        1 UNL1     -0.2557
     18 C         4.997601   3.223339   -4.999648 C.3        1 UNL1     0.0016
     19 C         5.7523   2.539717   -6.128665 C.3        1 UNL1     0.0026
     20 N         6.022848   1.161567   -5.743262 N.3        1 UNL1     -0.3018
     21 C         6.786599   1.000997   -4.504201 C.3        1 UNL1     0.0026
     22 C         6.008031   1.691044   -3.38279 C.3        1 UNL1     0.0016
     23 C         6.467208   0.342428   -6.853307 C.3        1 UNL1     0.0012
     24 C         5.311531   0.092975   -7.835112 C.3        1 UNL1     -0.0339
     25 C         5.346687   1.085452   -9.008913 C.3        1 UNL1     -0.0615
     26 C         5.340799   -1.346384   -8.319021 C.3        1 UNL1     -0.0615
     27 C         6.340004   8.937703   -2.231468 C.ar        1 UNL1     0.1347
     28 C         5.381167   9.206785   -1.271115 C.ar        1 UNL1     0.0342
     29 C         4.679981   8.072059   -0.810788 C.ar        1 UNL1     0.1435
     30 C         4.89955   6.790217   -1.316642 C.ar        1 UNL1     0.0774
     31 O         3.639215   8.185172   0.043037 O.3        1 UNL1     -0.4436
     32 C         2.917758   6.952237   -0.099246 C.3        1 UNL1     0.3143
     33 C         3.931111   5.959492   -0.631961 C.2        1 UNL1     0.2504
     34 C         4.934166   10.572674   -0.829939 C.3        1 UNL1     -0.0327
     35 O         2.557602   6.515105   1.216982 O.2        1 UNL1     -0.4528
     36 C         -0.685149   4.582334   0.820686 C.3        1 UNL1     0.0854
     37 C         -0.990452   3.321926   -0.076912 C.3        1 UNL1     0.0236
     38 C         -1.590505   2.060543   0.710866 C.3        1 UNL1     0.1131
     39 C         -0.864248   1.529416   2.011913 C.3        1 UNL1     0.0200
     40 C         0.796988   1.384214   2.052548 C.3        1 UNL1     0.0661
     41 C         1.756173   0.615899   0.883246 C.3        1 UNL1     0.0091
     42 C         3.463515   0.978969   0.31883 C.3        1 UNL1     0.0661
     43 C         7.49453   7.462998   -3.892782 C.2        1 UNL1     0.2131
     44 O         7.894008   8.361351   -4.611194 O.2        1 UNL1     -0.2851
     45 O         7.151914   9.973104   -2.689927 O.3        1 UNL1     -0.5056
     46 O         3.947395   4.755926   -0.501506 O.2        1 UNL1     -0.2836
     47 C         5.563821   1.31999   1.92825 C.3        1 UNL1     -0.0566
     48 O         3.912402   -0.432062   0.400111 O.3        1 UNL1     -0.3909
     49 C         0.921663   0.383457   -0.356535 C.3        1 UNL1     -0.0577
     50 O         1.397046   2.602101   2.445492 O.3        1 UNL1     -0.3910
     51 O         -0.80878   4.392271   2.212096 O.3        1 UNL1     -0.3753
     52 C         0.053691   3.161976   -1.229792 C.3        1 UNL1     -0.0564
     53 O         -2.193159   1.021666   -0.189062 O.3        1 UNL1     -0.4608
     54 C         -2.42719   -0.285224   0.150348 C.2        1 UNL1     0.3042
     55 O         -1.858013   -1.28412   -0.287924 O.2        1 UNL1     -0.2512
     56 C         -3.466851   -0.451365   1.221896 C.3        1 UNL1     0.0332
     57 C         -1.585037   2.197931   3.273549 C.3        1 UNL1     -0.0567
     58 C         1.842184   7.197381   -1.183024 C.3        1 UNL1     0.0210
     59 C         -1.122002   5.571019   2.952576 C.3        1 UNL1     0.0372
     60 C         0.643645   5.211758   0.58983 C.2        1 UNL1     -0.0208
     61 C         1.556751   5.646959   1.459072 C.2        1 UNL1     0.0882
     62 H         4.690836   2.733811   0.577943 H        1 UNL1     0.0365
     63 H         6.336769   3.610127   -0.254644 H        1 UNL1     0.0576
     64 H         8.342703   1.491984   -1.24786 H        1 UNL1     0.0615
     65 H         8.274709   4.609405   -1.434726 H        1 UNL1     0.0622
     66 H         -1.43005   5.328785   0.510881 H        1 UNL1     0.0645
     67 H         -1.856251   3.631265   -0.687863 H        1 UNL1     0.0362
     68 H         -2.537559   2.497131   1.063003 H        1 UNL1     0.0741
     69 H         -1.195499   0.518199   2.207158 H        1 UNL1     0.0359
     70 H         0.909171   0.723683   2.933556 H        1 UNL1     0.0600
     71 H         1.8001   -0.405366   1.309915 H        1 UNL1     0.0348
     72 H         3.357831   1.466904   1.29866 H        1 UNL1     0.0602
     73 H         0.761181   5.409294   -0.446708 H        1 UNL1     0.0628
     74 H         1.539578   5.436021   2.52886 H        1 UNL1     0.1022
     75 H         10.952331   2.256635   -3.43656 H        1 UNL1     0.0279
     76 H         10.797144   3.44799   -4.665336 H        1 UNL1     0.0279
     77 H         11.914877   3.664739   -3.25857 H        1 UNL1     0.0279
     78 H         9.06383   4.808063   -5.022284 H        1 UNL1     0.1553
     79 H         7.785638   3.335935   -4.668325 H        1 UNL1     0.1484
     80 H         4.036482   2.732156   -4.805341 H        1 UNL1     0.0317
     81 H         4.770693   4.260113   -5.270321 H        1 UNL1     0.0317
     82 H         6.682776   3.071275   -6.376805 H        1 UNL1     0.0428
     83 H         5.126862   2.594954   -7.020195 H        1 UNL1     0.0428
     84 H         6.907231   -0.042007   -4.195331 H        1 UNL1     0.0428
     85 H         7.816582   1.36927   -4.608245 H        1 UNL1     0.0428
     86 H         6.524787   1.440561   -2.47493 H        1 UNL1     0.0317
     87 H         5.028724   1.213172   -3.257518 H        1 UNL1     0.0317
     88 H         7.262995   0.884523   -7.380707 H        1 UNL1     0.0429
     89 H         6.900109   -0.603341   -6.50275 H        1 UNL1     0.0429
     90 H         4.358637   0.211719   -7.305861 H        1 UNL1     0.0308
     91 H         6.299702   1.035006   -9.544002 H        1 UNL1     0.0233
     92 H         4.531622   0.885481   -9.708405 H        1 UNL1     0.0233
     93 H         5.220441   2.124453   -8.681236 H        1 UNL1     0.0233
     94 H         4.64608   -1.477788   -9.155642 H        1 UNL1     0.0233
     95 H         6.344251   -1.601989   -8.670751 H        1 UNL1     0.0233
     96 H         5.05826   -2.040862   -7.52288 H        1 UNL1     0.0233
     97 H         4.134771   10.522681   -0.09666 H        1 UNL1     0.0280
     98 H         5.744524   11.139286   -0.352941 H        1 UNL1     0.0280
     99 H         4.568908   11.140724   -1.701146 H        1 UNL1     0.0280
     100 H         6.684639   10.72422   -3.011021 H        1 UNL1     0.2922
     101 H         4.701255   0.886045   2.433551 H        1 UNL1     0.0236
     102 H         6.014611   2.125288   2.507272 H        1 UNL1     0.0236
     103 H         6.320238   0.51748   1.926719 H        1 UNL1     0.0236
     104 H         4.331917   -0.558269   1.273638 H        1 UNL1     0.2098
     105 H         0.708649   1.282383   -0.929569 H        1 UNL1     0.0234
     106 H         1.291014   -0.404327   -1.012968 H        1 UNL1     0.0234
     107 H         0.0   -0.0   0.0 H        1 UNL1     0.0234
     108 H         1.203537   3.25882   1.749042 H        1 UNL1     0.2098
     109 H         1.080114   3.061016   -0.850352 H        1 UNL1     0.0234
     110 H         -0.172119   2.327379   -1.902251 H        1 UNL1     0.0234
     111 H         0.065704   4.039724   -1.88961 H        1 UNL1     0.0234
     112 H         -3.589946   -1.512328   1.459702 H        1 UNL1     0.0342
     113 H         -3.229783   0.124342   2.115319 H        1 UNL1     0.0342
     114 H         -4.424466   -0.080477   0.831281 H        1 UNL1     0.0342
     115 H         -2.654596   1.949419   3.311926 H        1 UNL1     0.0234
     116 H         -1.148221   1.91803   4.234224 H        1 UNL1     0.0234
     117 H         -1.623884   3.29979   3.2252 H        1 UNL1     0.0234
     118 H         0.940513   7.682586   -0.770022 H        1 UNL1     0.0309
     119 H         2.210738   7.786946   -2.028473 H        1 UNL1     0.0309
     120 H         1.454784   6.265479   -1.609154 H        1 UNL1     0.0309
     121 H         -0.301145   6.274392   2.815404 H        1 UNL1     0.0524
     122 H         -2.042014   6.059953   2.591248 H        1 UNL1     0.0524
     123 H         -1.239595   5.332998   4.005957 H        1 UNL1     0.0524
@<TRIPOS>BOND
     1     1     2    1
     2     1    42    1
     3     2     3    2
     4     3     4    1
     5     4     5    2
     6     5     7    1
     7     6    75    1
     8     6    76    1
     9     6    77    1
    10     7     9   am
    11     9    10    1
    12    10    11    2
    13    10    43    1
    14    11    14    1
    15    11    15    1
    16    12    13   ar
    17    12    27   ar
    18    12    43    1
    19    13    14    1
    20    13    30   ar
    21    14    17    2
    22    15    16    1
    23    16    17    1
    24    16    18    1
    25    16    22    1
    26    18    19    1
    27    19    20    1
    28    20    21    1
    29    21    22    1
    30    23    24    1
    31    23    88    1
    32    23    89    1
    33    24    25    1
    34    24    26    1
    35    24    90    1
    36    25    91    1
    37    25    92    1
    38    25    93    1
    39    26    94    1
    40    26    95    1
    41    26    96    1
    42    27    28   ar
    43    28    29   ar
    44    29    30   ar
    45    29    31    1
    46    30    33    1
    47    31    32    1
    48    32    33    1
    49    32    35    1
    50    34    97    1
    51    34    98    1
    52    34    99    1
    53    35    61    1
    54    36    37    1
    55    36    60    1
    56    37    38    1
    57    38    39    1
    58    39    40    1
    59    40    41    1
    60    41    42    1
    61    45   100    1
    62    47   101    1
    63    47   102    1
    64    47   103    1
    65    48   104    1
    66    49   105    1
    67    49   106    1
    68    49   107    1
    69    50   108    1
    70    51    59    1
    71    52   109    1
    72    52   110    1
    73    52   111    1
    74    53    54    1
    75    54    55    2
    76    54    56    1
    77    56   112    1
    78    56   113    1
    79    56   114    1
    80    57   115    1
    81    57   116    1
    82    57   117    1
    83    58   118    1
    84    58   119    1
    85    58   120    1
    86    59   121    1
    87    59   122    1
    88    59   123    1
    89    60    61    2
    90     1    47    1
    91     1    62    1
    92     2    63    1
    93     3    64    1
    94     4    65    1
    95     5     6    1
    96     7     8    2
    97     9    78    1
    98    15    79    1
    99    18    80    1
   100    18    81    1
   101    19    82    1
   102    19    83    1
   103    20    23    1
   104    21    84    1
   105    21    85    1
   106    22    86    1
   107    22    87    1
   108    27    45    1
   109    28    34    1
   110    32    58    1
   111    33    46    2
   112    36    51    1
   113    36    66    1
   114    37    52    1
   115    37    67    1
   116    38    53    1
   117    38    68    1
   118    42    48    1
   119    42    72    1
   120    43    44    2
   121    60    73    1
   122    61    74    1
   123    39    69    1
   124    39    57    1
   125    40    70    1
   126    40    50    1
   127    41    71    1
   128    41    49    1
