@<TRIPOS>MOLECULE
*****
 123 128 0 0 0
SMALL
GASTEIGER

@<TRIPOS>ATOM
     1 C         1.255647   -4.525292   0.919706 C.3        1 UNL1     0.0009
     2 C         2.701919   -5.567926   0.411523 C.2        1 UNL1     -0.0787
     3 C         3.240111   -6.707434   -0.30116 C.2        1 UNL1     -0.0649
     4 C         4.866066   -7.128866   -0.513348 C.2        1 UNL1     -0.0542
     5 C         5.77838   -7.879716   -1.295003 C.2        1 UNL1     0.0115
     6 C         5.888887   -8.963851   -2.402145 C.3        1 UNL1     -0.0348
     7 C         7.341003   -7.518527   -1.226152 C.2        1 UNL1     0.2441
     8 O         8.148028   -8.175184   -0.582692 O.2        1 UNL1     -0.2702
     9 N         7.764868   -6.556675   -2.159603 N.am        1 UNL1     -0.2772
     10 C         7.616261   -5.289445   -1.644467 C.2        1 UNL1     0.1049
     11 C         6.410943   -4.758695   -1.743139 C.2        1 UNL1     0.0801
     12 C         8.104388   -3.900504   0.377886 C.ar        1 UNL1     0.0753
     13 C         6.726067   -3.515735   0.349726 C.ar        1 UNL1     0.0305
     14 C         5.867117   -3.829794   -0.789845 C.2        1 UNL1     0.0924
     15 N         5.343761   -5.1646   -2.452288 N.pl3        1 UNL1     -0.3170
     16 C         4.335136   -4.143413   -2.351757 C.3        1 UNL1     0.1275
     17 N         4.608934   -3.47085   -1.028723 N.2        1 UNL1     -0.2557
     18 C         4.636479   -3.102919   -3.426124 C.3        1 UNL1     0.0016
     19 C         4.691826   -3.799889   -4.77622 C.3        1 UNL1     0.0026
     20 N         3.411289   -4.449278   -5.020245 N.3        1 UNL1     -0.3018
     21 C         3.005211   -5.424082   -4.005737 C.3        1 UNL1     0.0026
     22 C         2.95167   -4.70148   -2.658565 C.3        1 UNL1     0.0016
     23 C         3.252294   -4.884421   -6.393568 C.3        1 UNL1     0.0012
     24 C         4.622875   -5.043319   -7.070336 C.3        1 UNL1     -0.0339
     25 C         5.728949   -4.330963   -6.274594 C.3        1 UNL1     -0.0615
     26 C         4.937608   -6.515708   -7.269823 C.3        1 UNL1     -0.0615
     27 C         8.94629   -3.493892   1.410351 C.ar        1 UNL1     0.1347
     28 C         8.535423   -2.671703   2.444395 C.ar        1 UNL1     0.0342
     29 C         7.1627   -2.345669   2.42215 C.ar        1 UNL1     0.1435
     30 C         6.299135   -2.775513   1.413829 C.ar        1 UNL1     0.0774
     31 O         6.633386   -1.464315   3.298533 O.3        1 UNL1     -0.4436
     32 C         5.403542   -1.042115   2.690171 C.3        1 UNL1     0.3143
     33 C         5.029384   -2.15888   1.736728 C.2        1 UNL1     0.2504
     34 C         9.433148   -1.993506   3.44151 C.3        1 UNL1     -0.0327
     35 O         4.405594   -1.019365   3.718195 O.2        1 UNL1     -0.4528
     36 C         1.944754   1.692763   2.719839 C.3        1 UNL1     0.0854
     37 C         1.103306   1.835457   1.393518 C.3        1 UNL1     0.0236
     38 C         -0.47915   1.98033   1.609362 C.3        1 UNL1     0.1131
     39 C         -1.244663   0.943356   2.526393 C.3        1 UNL1     0.0200
     40 C         -0.915402   -0.688015   2.413898 C.3        1 UNL1     0.0661
     41 C         -0.860428   -1.594105   0.980863 C.3        1 UNL1     0.0091
     42 C         0.162858   -3.048791   0.531225 C.3        1 UNL1     0.0661
     43 C         8.629559   -4.672626   -0.775493 C.2        1 UNL1     0.2131
     44 O         9.809937   -4.722998   -1.070298 O.2        1 UNL1     -0.2851
     45 O         10.26275   -3.949754   1.386687 O.3        1 UNL1     -0.5056
     46 O         3.928796   -2.481203   1.348569 O.2        1 UNL1     -0.2836
     47 C         0.431964   -5.24569   2.020867 C.3        1 UNL1     -0.0566
     48 O         -0.977345   -3.826207   -0.011618 O.3        1 UNL1     -0.3909
     49 C         -0.818495   -0.644537   -0.195596 C.3        1 UNL1     -0.0577
     50 O         0.169127   -1.039175   3.249486 O.3        1 UNL1     -0.3910
     51 O         1.201221   1.535139   3.907165 O.3        1 UNL1     -0.3753
     52 C         1.709011   0.989415   0.226349 C.3        1 UNL1     -0.0564
     53 O         -1.21015   2.460526   0.389782 O.3        1 UNL1     -0.4608
     54 C         -2.132773   1.737671   -0.320273 C.2        1 UNL1     0.3042
     55 O         -2.290393   0.51744   -0.31466 O.2        1 UNL1     -0.2512
     56 C         -3.064186   2.588043   -1.136392 C.3        1 UNL1     0.0332
     57 C         -1.355251   1.582274   3.98849 C.3        1 UNL1     -0.0567
     58 C         5.734587   0.225443   1.868444 C.3        1 UNL1     0.0210
     59 C         0.500366   0.29703   4.015589 C.3        1 UNL1     0.0372
     60 C         2.96386   0.608169   2.704389 C.2        1 UNL1     -0.0208
     61 C         3.266209   -0.307107   3.626126 C.2        1 UNL1     0.0882
     62 H         1.948251   -3.851006   1.437729 H        1 UNL1     0.0365
     63 H         3.508158   -5.080826   0.963957 H        1 UNL1     0.0576
     64 H         2.6096   -7.337879   -0.932113 H        1 UNL1     0.0615
     65 H         5.394136   -6.503369   0.211482 H        1 UNL1     0.0622
     66 H         2.507574   2.634056   2.792269 H        1 UNL1     0.0645
     67 H         1.366092   2.838931   1.015967 H        1 UNL1     0.0362
     68 H         -0.503054   2.931869   2.162104 H        1 UNL1     0.0741
     69 H         -2.300777   0.988521   2.296194 H        1 UNL1     0.0359
     70 H         -1.805284   -1.098092   2.928687 H        1 UNL1     0.0600
     71 H         -1.908806   -1.948875   0.93616 H        1 UNL1     0.0348
     72 H         0.178692   -2.994686   1.629468 H        1 UNL1     0.0602
     73 H         3.574005   0.714494   1.842028 H        1 UNL1     0.0628
     74 H         2.659907   -0.518199   4.507646 H        1 UNL1     0.1022
     75 H         6.802651   -8.798904   -3.022517 H        1 UNL1     0.0279
     76 H         6.016627   -9.990109   -2.065179 H        1 UNL1     0.0279
     77 H         5.09516   -8.881191   -3.159023 H        1 UNL1     0.0279
     78 H         7.189671   -6.616233   -2.997266 H        1 UNL1     0.1553
     79 H         5.398737   -5.800117   -3.226903 H        1 UNL1     0.1484
     80 H         3.857245   -2.331474   -3.405276 H        1 UNL1     0.0317
     81 H         5.585671   -2.595207   -3.22385 H        1 UNL1     0.0317
     82 H         5.518683   -4.523501   -4.827252 H        1 UNL1     0.0428
     83 H         4.909602   -3.04012   -5.527468 H        1 UNL1     0.0428
     84 H         2.005471   -5.837877   -4.170371 H        1 UNL1     0.0428
     85 H         3.661193   -6.305543   -4.000091 H        1 UNL1     0.0428
     86 H         2.525584   -5.406169   -1.968744 H        1 UNL1     0.0317
     87 H         2.205812   -3.898013   -2.693702 H        1 UNL1     0.0317
     88 H         2.750686   -5.860963   -6.386515 H        1 UNL1     0.0429
     89 H         2.609371   -4.19669   -6.957882 H        1 UNL1     0.0429
     90 H         4.579841   -4.607372   -8.075478 H        1 UNL1     0.0308
     91 H         5.711593   -3.250941   -6.448817 H        1 UNL1     0.0233
     92 H         5.620161   -4.523436   -5.204674 H        1 UNL1     0.0233
     93 H         6.73168   -4.681211   -6.547893 H        1 UNL1     0.0233
     94 H         4.01029   -7.096242   -7.323654 H        1 UNL1     0.0233
     95 H         5.479449   -6.658052   -8.20903 H        1 UNL1     0.0233
     96 H         5.544276   -6.908833   -6.449229 H        1 UNL1     0.0233
     97 H         10.233411   -1.440286   2.95906 H        1 UNL1     0.0280
     98 H         8.891289   -1.263204   4.056575 H        1 UNL1     0.0280
     99 H         9.886044   -2.749116   4.104106 H        1 UNL1     0.0280
     100 H         10.807951   -3.607636   2.073225 H        1 UNL1     0.2922
     101 H         1.032404   -6.035644   2.471534 H        1 UNL1     0.0236
     102 H         -0.529046   -5.615173   1.664601 H        1 UNL1     0.0236
     103 H         0.181499   -4.572552   2.857734 H        1 UNL1     0.0236
     104 H         -1.208866   -4.509522   0.647509 H        1 UNL1     0.2098
     105 H         -0.641773   -1.125121   -1.154564 H        1 UNL1     0.0234
     106 H         -1.668983   0.033641   -0.263944 H        1 UNL1     0.0234
     107 H         0.0   0.0   0.0 H        1 UNL1     0.0234
     108 H         0.683366   -0.22552   3.414691 H        1 UNL1     0.2098
     109 H         2.756325   0.71346   0.412612 H        1 UNL1     0.0234
     110 H         1.127461   0.089101   0.000569 H        1 UNL1     0.0234
     111 H         1.712472   1.548127   -0.719048 H        1 UNL1     0.0234
     112 H         -3.074945   2.238587   -2.173267 H        1 UNL1     0.0342
     113 H         -4.070408   2.608517   -0.720531 H        1 UNL1     0.0342
     114 H         -2.68119   3.617829   -1.132027 H        1 UNL1     0.0342
     115 H         -1.172685   2.665645   3.975642 H        1 UNL1     0.0234
     116 H         -2.319604   1.417521   4.473185 H        1 UNL1     0.0234
     117 H         -0.564521   1.241094   4.678624 H        1 UNL1     0.0234
     118 H         4.914797   0.500256   1.181838 H        1 UNL1     0.0309
     119 H         5.983585   1.08935   2.492837 H        1 UNL1     0.0309
     120 H         6.588172   0.080274   1.197307 H        1 UNL1     0.0309
     121 H         1.20737   -0.451987   4.371224 H        1 UNL1     0.0524
     122 H         -0.325686   0.34632   4.744455 H        1 UNL1     0.0524
     123 H         0.100381   0.005623   3.048538 H        1 UNL1     0.0524
@<TRIPOS>BOND
     1     1     2    1
     2     1    42    1
     3     2     3    2
     4     3     4    1
     5     4     5    2
     6     5     7    1
     7     6    75    1
     8     6    76    1
     9     6    77    1
    10     7     9   am
    11     9    10    1
    12    10    11    2
    13    10    43    1
    14    11    14    1
    15    11    15    1
    16    12    13   ar
    17    12    27   ar
    18    12    43    1
    19    13    14    1
    20    13    30   ar
    21    14    17    2
    22    15    16    1
    23    16    17    1
    24    16    18    1
    25    16    22    1
    26    18    19    1
    27    19    20    1
    28    20    21    1
    29    21    22    1
    30    23    24    1
    31    23    88    1
    32    23    89    1
    33    24    25    1
    34    24    26    1
    35    24    90    1
    36    25    91    1
    37    25    92    1
    38    25    93    1
    39    26    94    1
    40    26    95    1
    41    26    96    1
    42    27    28   ar
    43    28    29   ar
    44    29    30   ar
    45    29    31    1
    46    30    33    1
    47    31    32    1
    48    32    33    1
    49    32    35    1
    50    34    97    1
    51    34    98    1
    52    34    99    1
    53    35    61    1
    54    36    37    1
    55    36    60    1
    56    37    38    1
    57    38    39    1
    58    39    40    1
    59    40    41    1
    60    41    42    1
    61    45   100    1
    62    47   101    1
    63    47   102    1
    64    47   103    1
    65    48   104    1
    66    49   105    1
    67    49   106    1
    68    49   107    1
    69    50   108    1
    70    51    59    1
    71    52   109    1
    72    52   110    1
    73    52   111    1
    74    53    54    1
    75    54    55    2
    76    54    56    1
    77    56   112    1
    78    56   113    1
    79    56   114    1
    80    57   115    1
    81    57   116    1
    82    57   117    1
    83    58   118    1
    84    58   119    1
    85    58   120    1
    86    59   121    1
    87    59   122    1
    88    59   123    1
    89    60    61    2
    90     1    47    1
    91     1    62    1
    92     2    63    1
    93     3    64    1
    94     4    65    1
    95     5     6    1
    96     7     8    2
    97     9    78    1
    98    15    79    1
    99    18    80    1
   100    18    81    1
   101    19    82    1
   102    19    83    1
   103    20    23    1
   104    21    84    1
   105    21    85    1
   106    22    86    1
   107    22    87    1
   108    27    45    1
   109    28    34    1
   110    32    58    1
   111    33    46    2
   112    36    51    1
   113    36    66    1
   114    37    52    1
   115    37    67    1
   116    38    53    1
   117    38    68    1
   118    42    48    1
   119    42    72    1
   120    43    44    2
   121    60    73    1
   122    61    74    1
   123    39    69    1
   124    39    57    1
   125    40    70    1
   126    40    50    1
   127    41    71    1
   128    41    49    1
