@<TRIPOS>MOLECULE
*****
 123 128 0 0 0
SMALL
GASTEIGER

@<TRIPOS>ATOM
     1 C         5.158333   1.778246   0.478244 C.3        1 UNL1     0.0009
     2 C         6.587942   2.593337   -0.375501 C.2        1 UNL1     -0.0787
     3 C         7.868492   2.503103   -1.044901 C.2        1 UNL1     -0.0649
     4 C         8.736659   3.743891   -1.801926 C.2        1 UNL1     -0.0542
     5 C         9.752336   4.043189   -2.743149 C.2        1 UNL1     0.0115
     6 C         10.881695   3.42498   -3.612452 C.3        1 UNL1     -0.0348
     7 C         9.837395   5.527462   -3.348696 C.2        1 UNL1     0.2441
     8 O         10.657573   6.353555   -2.972657 O.2        1 UNL1     -0.2702
     9 N         9.082704   5.731033   -4.517093 N.am        1 UNL1     -0.2772
     10 C         7.798661   6.110036   -4.199424 C.2        1 UNL1     0.1049
     11 C         6.959328   5.133513   -3.90592 C.2        1 UNL1     0.0801
     12 C         6.494972   7.708012   -2.783726 C.ar        1 UNL1     0.0753
     13 C         5.743707   6.575365   -2.335039 C.ar        1 UNL1     0.0305
     14 C         5.86637   5.270884   -2.981827 C.2        1 UNL1     0.0924
     15 N         7.089181   3.805395   -4.066447 N.pl3        1 UNL1     -0.3170
     16 C         5.823694   3.198639   -3.749205 C.3        1 UNL1     0.1275
     17 N         5.184538   4.149385   -2.766716 N.2        1 UNL1     -0.2557
     18 C         4.966972   3.253797   -5.010429 C.3        1 UNL1     0.0016
     19 C         5.722621   2.574993   -6.141716 C.3        1 UNL1     0.0026
     20 N         6.001808   1.198165   -5.757752 N.3        1 UNL1     -0.3018
     21 C         6.769558   1.041188   -4.520704 C.3        1 UNL1     0.0026
     22 C         5.989986   1.726287   -3.39696 C.3        1 UNL1     0.0016
     23 C         6.447925   0.382108   -6.86936 C.3        1 UNL1     0.0012
     24 C         5.291186   0.126748   -7.848392 C.3        1 UNL1     -0.0339
     25 C         5.377531   1.050873   -9.074196 C.3        1 UNL1     -0.0615
     26 C         5.264584   -1.337034   -8.252638 C.3        1 UNL1     -0.0615
     27 C         6.284504   8.974066   -2.242495 C.ar        1 UNL1     0.1347
     28 C         5.326605   9.237289   -1.279586 C.ar        1 UNL1     0.0342
     29 C         4.632909   8.09843   -0.81812 C.ar        1 UNL1     0.1435
     30 C         4.858338   6.818101   -1.325229 C.ar        1 UNL1     0.0774
     31 O         3.593682   8.205288   0.038382 O.3        1 UNL1     -0.4436
     32 C         2.878746   6.96843   -0.102764 C.3        1 UNL1     0.3143
     33 C         3.896266   5.981629   -0.638572 C.2        1 UNL1     0.2504
     34 C         4.873119   10.600431   -0.836537 C.3        1 UNL1     -0.0327
     35 O         2.524344   6.528595   1.214125 O.2        1 UNL1     -0.4528
     36 C         -0.708583   4.578008   0.824924 C.3        1 UNL1     0.0854
     37 C         -1.009122   3.316399   -0.072596 C.3        1 UNL1     0.0236
     38 C         -1.600158   2.051273   0.715995 C.3        1 UNL1     0.1131
     39 C         -0.867681   1.523502   2.01492 C.3        1 UNL1     0.0200
     40 C         0.794434   1.387532   2.051298 C.3        1 UNL1     0.0661
     41 C         1.754935   0.625197   0.879165 C.3        1 UNL1     0.0091
     42 C         3.458802   0.998072   0.310656 C.3        1 UNL1     0.0661
     43 C         7.443037   7.506702   -3.907517 C.2        1 UNL1     0.2131
     44 O         7.835696   8.407651   -4.626438 O.2        1 UNL1     -0.2851
     45 O         7.08948   10.014218   -2.702425 O.3        1 UNL1     -0.5056
     46 O         3.919579   4.778104   -0.508819 O.2        1 UNL1     -0.2836
     47 C         5.561223   1.349922   1.914977 C.3        1 UNL1     -0.0566
     48 O         3.915742   -0.410481   0.390033 O.3        1 UNL1     -0.3909
     49 C         0.918613   0.388774   -0.358641 C.3        1 UNL1     -0.0577
     50 O         1.38869   2.608531   2.4434 O.3        1 UNL1     -0.3910
     51 O         -0.827649   4.386513   2.216536 O.3        1 UNL1     -0.3753
     52 C         0.032988   3.162884   -1.228186 C.3        1 UNL1     -0.0564
     53 O         -2.199282   1.009537   -0.182984 O.3        1 UNL1     -0.4608
     54 C         -2.425178   -0.298817   0.156295 C.2        1 UNL1     0.3042
     55 O         -1.850532   -1.294186   -0.282863 O.2        1 UNL1     -0.2512
     56 C         -3.462703   -0.471442   1.228888 C.3        1 UNL1     0.0332
     57 C         -1.589002   2.187317   3.278732 C.3        1 UNL1     -0.0567
     58 C         1.799098   7.208161   -1.183699 C.3        1 UNL1     0.0210
     59 C         -1.145564   5.563102   2.958449 C.3        1 UNL1     0.0372
     60 C         0.6161   5.214945   0.591073 C.2        1 UNL1     -0.0208
     61 C         1.528955   5.654759   1.458254 C.2        1 UNL1     0.0882
     62 H         4.676983   2.759582   0.567646 H        1 UNL1     0.0365
     63 H         6.31591   3.645496   -0.268597 H        1 UNL1     0.0576
     64 H         8.331098   1.539089   -1.268017 H        1 UNL1     0.0615
     65 H         8.245278   4.656183   -1.452999 H        1 UNL1     0.0622
     66 H         -1.458406   5.320464   0.517403 H        1 UNL1     0.0645
     67 H         -1.878166   3.621239   -0.681197 H        1 UNL1     0.0362
     68 H         -2.548739   2.482391   1.070753 H        1 UNL1     0.0741
     69 H         -1.192804   0.510352   2.210442 H        1 UNL1     0.0359
     70 H         0.912511   0.727164   2.931657 H        1 UNL1     0.0600
     71 H         1.805621   -0.396036   1.305161 H        1 UNL1     0.0348
     72 H         3.352871   1.484886   1.291017 H        1 UNL1     0.0602
     73 H         0.729925   5.413688   -0.44565 H        1 UNL1     0.0628
     74 H         1.51565   5.443156   2.527966 H        1 UNL1     0.1022
     75 H         10.914338   2.316375   -3.482206 H        1 UNL1     0.0279
     76 H         10.777844   3.531302   -4.68994 H        1 UNL1     0.0279
     77 H         11.88688   3.71303   -3.271381 H        1 UNL1     0.0279
     78 H         9.024245   4.861153   -5.042421 H        1 UNL1     0.1553
     79 H         7.755164   3.38174   -4.686057 H        1 UNL1     0.1484
     80 H         4.009095   2.757165   -4.813975 H        1 UNL1     0.0317
     81 H         4.733614   4.289436   -5.279961 H        1 UNL1     0.0317
     82 H         6.649495   3.111858   -6.391903 H        1 UNL1     0.0428
     83 H         5.094642   2.627223   -7.03164 H        1 UNL1     0.0428
     84 H         6.896773   -0.001294   -4.212711 H        1 UNL1     0.0428
     85 H         7.79721   1.415247   -4.627135 H        1 UNL1     0.0428
     86 H         6.510412   1.4782   -2.49054 H        1 UNL1     0.0317
     87 H         5.013674   1.242902   -3.269487 H        1 UNL1     0.0317
     88 H         7.239351   0.928908   -7.398462 H        1 UNL1     0.0429
     89 H         6.886966   -0.561424   -6.520412 H        1 UNL1     0.0429
     90 H         4.339632   0.313495   -7.336647 H        1 UNL1     0.0308
     91 H         6.332099   0.931937   -9.5955 H        1 UNL1     0.0233
     92 H         4.560776   0.846405   -9.770409 H        1 UNL1     0.0233
     93 H         5.291893   2.110635   -8.805116 H        1 UNL1     0.0233
     94 H         4.581525   -1.483521   -9.096326 H        1 UNL1     0.0233
     95 H         6.262209   -1.655955   -8.567273 H        1 UNL1     0.0233
     96 H         4.934798   -1.97323   -7.426525 H        1 UNL1     0.0233
     97 H         4.075863   10.545595   -0.101277 H        1 UNL1     0.0280
     98 H         5.681508   11.171292   -0.361267 H        1 UNL1     0.0280
     99 H         4.502512   11.166905   -1.70651 H        1 UNL1     0.0280
     100 H         6.617381   10.767035   -3.012283 H        1 UNL1     0.2922
     101 H         4.699165   0.922305   2.4265 H        1 UNL1     0.0236
     102 H         6.020082   2.154095   2.489205 H        1 UNL1     0.0236
     103 H         6.312962   0.543036   1.911098 H        1 UNL1     0.0236
     104 H         4.333102   -0.536331   1.264644 H        1 UNL1     0.2098
     105 H         0.699156   1.286807   -0.930643 H        1 UNL1     0.0234
     106 H         1.290691   -0.396589   -1.016433 H        1 UNL1     0.0234
     107 H         0.0   -0.0   0.0 H        1 UNL1     0.0234
     108 H         1.199406   3.261593   1.742365 H        1 UNL1     0.2098
     109 H         1.06091   3.067438   -0.851384 H        1 UNL1     0.0234
     110 H         -0.189864   2.327403   -1.900534 H        1 UNL1     0.0234
     111 H         0.038453   4.041038   -1.88755 H        1 UNL1     0.0234
     112 H         -3.579234   -1.533185   1.466518 H        1 UNL1     0.0342
     113 H         -3.228122   0.105414   2.122227 H        1 UNL1     0.0342
     114 H         -4.422918   -0.106147   0.839388 H        1 UNL1     0.0342
     115 H         -2.65967   1.942993   3.312835 H        1 UNL1     0.0234
     116 H         -1.155847   1.89979   4.238812 H        1 UNL1     0.0234
     117 H         -1.623192   3.289601   3.236983 H        1 UNL1     0.0234
     118 H         0.894558   7.685287   -0.767569 H        1 UNL1     0.0309
     119 H         2.161363   7.80281   -2.028305 H        1 UNL1     0.0309
     120 H         1.418027   6.274439   -1.611547 H        1 UNL1     0.0309
     121 H         -0.311824   6.256325   2.850399 H        1 UNL1     0.0524
     122 H         -2.048478   6.067622   2.576031 H        1 UNL1     0.0524
     123 H         -1.295711   5.317773   4.006 H        1 UNL1     0.0524
@<TRIPOS>BOND
     1     1     2    1
     2     1    42    1
     3     2     3    2
     4     3     4    1
     5     4     5    2
     6     5     7    1
     7     6    75    1
     8     6    76    1
     9     6    77    1
    10     7     9   am
    11     9    10    1
    12    10    11    2
    13    10    43    1
    14    11    14    1
    15    11    15    1
    16    12    13   ar
    17    12    27   ar
    18    12    43    1
    19    13    14    1
    20    13    30   ar
    21    14    17    2
    22    15    16    1
    23    16    17    1
    24    16    18    1
    25    16    22    1
    26    18    19    1
    27    19    20    1
    28    20    21    1
    29    21    22    1
    30    23    24    1
    31    23    88    1
    32    23    89    1
    33    24    25    1
    34    24    26    1
    35    24    90    1
    36    25    91    1
    37    25    92    1
    38    25    93    1
    39    26    94    1
    40    26    95    1
    41    26    96    1
    42    27    28   ar
    43    28    29   ar
    44    29    30   ar
    45    29    31    1
    46    30    33    1
    47    31    32    1
    48    32    33    1
    49    32    35    1
    50    34    97    1
    51    34    98    1
    52    34    99    1
    53    35    61    1
    54    36    37    1
    55    36    60    1
    56    37    38    1
    57    38    39    1
    58    39    40    1
    59    40    41    1
    60    41    42    1
    61    45   100    1
    62    47   101    1
    63    47   102    1
    64    47   103    1
    65    48   104    1
    66    49   105    1
    67    49   106    1
    68    49   107    1
    69    50   108    1
    70    51    59    1
    71    52   109    1
    72    52   110    1
    73    52   111    1
    74    53    54    1
    75    54    55    2
    76    54    56    1
    77    56   112    1
    78    56   113    1
    79    56   114    1
    80    57   115    1
    81    57   116    1
    82    57   117    1
    83    58   118    1
    84    58   119    1
    85    58   120    1
    86    59   121    1
    87    59   122    1
    88    59   123    1
    89    60    61    2
    90     1    47    1
    91     1    62    1
    92     2    63    1
    93     3    64    1
    94     4    65    1
    95     5     6    1
    96     7     8    2
    97     9    78    1
    98    15    79    1
    99    18    80    1
   100    18    81    1
   101    19    82    1
   102    19    83    1
   103    20    23    1
   104    21    84    1
   105    21    85    1
   106    22    86    1
   107    22    87    1
   108    27    45    1
   109    28    34    1
   110    32    58    1
   111    33    46    2
   112    36    51    1
   113    36    66    1
   114    37    52    1
   115    37    67    1
   116    38    53    1
   117    38    68    1
   118    42    48    1
   119    42    72    1
   120    43    44    2
   121    60    73    1
   122    61    74    1
   123    39    69    1
   124    39    57    1
   125    40    70    1
   126    40    50    1
   127    41    71    1
   128    41    49    1
