@<TRIPOS>MOLECULE
*****
 123 128 0 0 0
SMALL
GASTEIGER

@<TRIPOS>ATOM
     1 C         4.971323   2.240294   0.528033 C.3        1 UNL1     0.0009
     2 C         6.358096   3.117754   -0.3345 C.2        1 UNL1     -0.0787
     3 C         7.67029   3.096792   -0.945855 C.2        1 UNL1     -0.0649
     4 C         8.455603   4.351571   -1.767542 C.2        1 UNL1     -0.0542
     5 C         9.481198   4.671477   -2.691064 C.2        1 UNL1     0.0115
     6 C         10.699757   4.096864   -3.464535 C.3        1 UNL1     -0.0348
     7 C         9.458567   6.106127   -3.410964 C.2        1 UNL1     0.2441
     8 O         10.182864   7.032023   -3.072383 O.2        1 UNL1     -0.2702
     9 N         8.741718   6.147413   -4.619506 N.am        1 UNL1     -0.2772
     10 C         7.415676   6.427596   -4.381952 C.2        1 UNL1     0.1049
     11 C         6.65591   5.402142   -4.042217 C.2        1 UNL1     0.0801
     12 C         5.910437   8.000448   -3.149992 C.ar        1 UNL1     0.0753
     13 C         5.245466   6.840237   -2.639766 C.ar        1 UNL1     0.0305
     14 C         5.514653   5.507105   -3.173948 C.2        1 UNL1     0.0924
     15 N         6.912577   4.083666   -4.089893 N.pl3        1 UNL1     -0.3170
     16 C         5.694287   3.387087   -3.772401 C.3        1 UNL1     0.1275
     17 N         4.928228   4.346488   -2.894662 N.2        1 UNL1     -0.2557
     18 C         4.893534   3.264336   -5.065239 C.3        1 UNL1     0.0016
     19 C         5.757537   2.574339   -6.108787 C.3        1 UNL1     0.0026
     20 N         6.142758   1.263453   -5.604594 N.3        1 UNL1     -0.3018
     21 C         6.8653   1.274928   -4.330949 C.3        1 UNL1     0.0026
     22 C         5.977265   1.968349   -3.296321 C.3        1 UNL1     0.0016
     23 C         6.710362   0.409691   -6.629074 C.3        1 UNL1     0.0012
     24 C         5.626591   -0.027703   -7.627014 C.3        1 UNL1     -0.0339
     25 C         5.239813   1.118916   -8.575552 C.3        1 UNL1     -0.0615
     26 C         6.088799   -1.255051   -8.393018 C.3        1 UNL1     -0.0615
     27 C         5.562111   9.279069   -2.721138 C.ar        1 UNL1     0.1347
     28 C         4.542083   9.524616   -1.819307 C.ar        1 UNL1     0.0342
     29 C         3.934375   8.364625   -1.293689 C.ar        1 UNL1     0.1435
     30 C         4.297348   7.075865   -1.686841 C.ar        1 UNL1     0.0774
     31 O         2.852369   8.439138   -0.488258 O.3        1 UNL1     -0.4436
     32 C         2.259438   7.133476   -0.555732 C.3        1 UNL1     0.3143
     33 C         3.385151   6.208184   -0.971444 C.2        1 UNL1     0.2504
     34 C         3.947594   10.869247   -1.505217 C.3        1 UNL1     -0.0327
     35 O         1.887608   6.765045   0.778155 O.2        1 UNL1     -0.4528
     36 C         -1.134658   4.495573   0.426733 C.3        1 UNL1     0.0854
     37 C         -1.279142   3.145982   -0.376542 C.3        1 UNL1     0.0236
     38 C         -1.787955   1.895478   0.488961 C.3        1 UNL1     0.1131
     39 C         -1.069701   1.540357   1.852878 C.3        1 UNL1     0.0200
     40 C         0.594585   1.564145   1.96252 C.3        1 UNL1     0.0661
     41 C         1.671788   0.807311   0.892733 C.3        1 UNL1     0.0091
     42 C         3.358667   1.293521   0.360339 C.3        1 UNL1     0.0661
     43 C         6.922292   7.803046   -4.217438 C.2        1 UNL1     0.2131
     44 O         7.2636   8.678816   -4.991565 O.2        1 UNL1     -0.2851
     45 O         6.289399   10.351644   -3.23307 O.3        1 UNL1     -0.5056
     46 O         3.511518   5.025735   -0.744065 O.2        1 UNL1     -0.2836
     47 C         5.346489   1.963572   2.008795 C.3        1 UNL1     -0.0566
     48 O         3.937268   -0.055631   0.570396 O.3        1 UNL1     -0.3909
     49 C         0.916688   0.398851   -0.352449 C.3        1 UNL1     -0.0577
     50 O         1.057632   2.862067   2.276701 O.3        1 UNL1     -0.3910
     51 O         -1.2982   4.401481   1.823813 O.3        1 UNL1     -0.3753
     52 C         -0.176625   3.002396   -1.475991 C.3        1 UNL1     -0.0564
     53 O         -2.249341   0.736007   -0.344751 O.3        1 UNL1     -0.4608
     54 C         -2.055286   -0.586762   -0.043827 C.2        1 UNL1     0.3042
     55 O         -1.225247   -1.35054   -0.535269 O.2        1 UNL1     -0.2512
     56 C         -2.947331   -1.090733   1.054801 C.3        1 UNL1     0.0332
     57 C         -1.90414   2.228901   3.030925 C.3        1 UNL1     -0.0567
     58 C         1.212098   7.186898   -1.692286 C.3        1 UNL1     0.0210
     59 C         -1.754206   5.596707   2.455762 C.3        1 UNL1     0.0372
     60 C         0.136051   5.234085   0.192085 C.2        1 UNL1     -0.0208
     61 C         0.9655   5.823074   1.054553 C.2        1 UNL1     0.0882
     62 H         4.399556   3.176095   0.519693 H        1 UNL1     0.0365
     63 H         5.987374   4.144841   -0.323271 H        1 UNL1     0.0576
     64 H         8.227839   2.16613   -1.0728 H        1 UNL1     0.0615
     65 H         7.868466   5.237881   -1.512186 H        1 UNL1     0.0622
     66 H         -1.934085   5.138506   0.032273 H        1 UNL1     0.0645
     67 H         -2.144041   3.320164   -1.039994 H        1 UNL1     0.0362
     68 H         -2.786636   2.261723   0.771842 H        1 UNL1     0.0741
     69 H         -1.310178   0.519248   2.117293 H        1 UNL1     0.0359
     70 H         0.732369   0.98753   2.89718 H        1 UNL1     0.0600
     71 H         1.795591   -0.168812   1.401471 H        1 UNL1     0.0348
     72 H         3.165212   1.842287   1.293477 H        1 UNL1     0.0602
     73 H         0.277801   5.362208   -0.8523 H        1 UNL1     0.0628
     74 H         0.923439   5.694158   2.13661 H        1 UNL1     0.1022
     75 H         11.361005   3.515139   -2.777962 H        1 UNL1     0.0279
     76 H         10.480611   3.373887   -4.247062 H        1 UNL1     0.0279
     77 H         11.387635   4.879603   -3.816451 H        1 UNL1     0.0279
     78 H         8.785903   5.238028   -5.074637 H        1 UNL1     0.1553
     79 H         7.641312   3.67792   -4.647788 H        1 UNL1     0.1484
     80 H         3.976725   2.696628   -4.865402 H        1 UNL1     0.0317
     81 H         4.579672   4.249667   -5.42616 H        1 UNL1     0.0317
     82 H         6.642269   3.174935   -6.366558 H        1 UNL1     0.0428
     83 H         5.167965   2.498735   -7.022974 H        1 UNL1     0.0428
     84 H         7.072457   0.275807   -3.935152 H        1 UNL1     0.0428
     85 H         7.858589   1.734448   -4.428595 H        1 UNL1     0.0428
     86 H         6.476832   1.840724   -2.353913 H        1 UNL1     0.0317
     87 H         5.044009   1.406749   -3.166954 H        1 UNL1     0.0317
     88 H         7.471952   0.985963   -7.17054 H        1 UNL1     0.0429
     89 H         7.21695   -0.458801   -6.188772 H        1 UNL1     0.0429
     90 H         4.733024   -0.339209   -7.073196 H        1 UNL1     0.0308
     91 H         4.174576   1.356529   -8.498658 H        1 UNL1     0.0233
     92 H         5.824043   2.015618   -8.355988 H        1 UNL1     0.0233
     93 H         5.436417   0.875649   -9.626743 H        1 UNL1     0.0233
     94 H         5.537009   -1.342193   -9.335233 H        1 UNL1     0.0233
     95 H         7.152376   -1.167699   -8.632048 H        1 UNL1     0.0233
     96 H         5.931007   -2.169466   -7.814301 H        1 UNL1     0.0233
     97 H         2.881085   10.900465   -1.707244 H        1 UNL1     0.0280
     98 H         4.060697   11.134497   -0.445922 H        1 UNL1     0.0280
     99 H         4.438346   11.642211   -2.119044 H        1 UNL1     0.0280
     100 H         7.223679   10.247228   -3.190161 H        1 UNL1     0.2922
     101 H         4.817468   2.660462   2.658516 H        1 UNL1     0.0236
     102 H         6.42115   1.973024   2.187673 H        1 UNL1     0.0236
     103 H         5.015191   0.965321   2.340353 H        1 UNL1     0.0236
     104 H         4.908451   0.025441   0.498272 H        1 UNL1     0.2098
     105 H         0.685092   1.219542   -1.02672 H        1 UNL1     0.0234
     106 H         1.361977   -0.429052   -0.90401 H        1 UNL1     0.0234
     107 H         0.0   -0.0   0.0 H        1 UNL1     0.0234
     108 H         0.753265   3.458626   1.565894 H        1 UNL1     0.2098
     109 H         -0.151635   3.865893   -2.1553 H        1 UNL1     0.0234
     110 H         0.823449   2.832035   -1.062985 H        1 UNL1     0.0234
     111 H         -0.353578   2.126777   -2.114681 H        1 UNL1     0.0234
     112 H         -2.727791   -2.143047   1.259211 H        1 UNL1     0.0342
     113 H         -2.861629   -0.490832   1.959575 H        1 UNL1     0.0342
     114 H         -3.988144   -1.02484   0.709068 H        1 UNL1     0.0342
     115 H         -1.593836   1.862689   4.019251 H        1 UNL1     0.0234
     116 H         -1.833123   3.318277   3.047247 H        1 UNL1     0.0234
     117 H         -2.973809   1.957336   3.029246 H        1 UNL1     0.0234
     118 H         0.202925   7.42837   -1.315102 H        1 UNL1     0.0309
     119 H         1.475795   7.892284   -2.486702 H        1 UNL1     0.0309
     120 H         1.073285   6.216798   -2.181922 H        1 UNL1     0.0309
     121 H         -1.412969   5.573461   3.49035 H        1 UNL1     0.0524
     122 H         -1.335075   6.503239   1.988252 H        1 UNL1     0.0524
     123 H         -2.838593   5.650656   2.419852 H        1 UNL1     0.0524
@<TRIPOS>BOND
     1     1     2    1
     2     1    42    1
     3     2     3    2
     4     3     4    1
     5     4     5    2
     6     5     7    1
     7     6    75    1
     8     6    76    1
     9     6    77    1
    10     7     9   am
    11     9    10    1
    12    10    11    2
    13    10    43    1
    14    11    14    1
    15    11    15    1
    16    12    13   ar
    17    12    27   ar
    18    12    43    1
    19    13    14    1
    20    13    30   ar
    21    14    17    2
    22    15    16    1
    23    16    17    1
    24    16    18    1
    25    16    22    1
    26    18    19    1
    27    19    20    1
    28    20    21    1
    29    21    22    1
    30    23    24    1
    31    23    88    1
    32    23    89    1
    33    24    25    1
    34    24    26    1
    35    24    90    1
    36    25    91    1
    37    25    92    1
    38    25    93    1
    39    26    94    1
    40    26    95    1
    41    26    96    1
    42    27    28   ar
    43    28    29   ar
    44    29    30   ar
    45    29    31    1
    46    30    33    1
    47    31    32    1
    48    32    33    1
    49    32    35    1
    50    34    97    1
    51    34    98    1
    52    34    99    1
    53    35    61    1
    54    36    37    1
    55    36    60    1
    56    37    38    1
    57    38    39    1
    58    39    40    1
    59    40    41    1
    60    41    42    1
    61    45   100    1
    62    47   101    1
    63    47   102    1
    64    47   103    1
    65    48   104    1
    66    49   105    1
    67    49   106    1
    68    49   107    1
    69    50   108    1
    70    51    59    1
    71    52   109    1
    72    52   110    1
    73    52   111    1
    74    53    54    1
    75    54    55    2
    76    54    56    1
    77    56   112    1
    78    56   113    1
    79    56   114    1
    80    57   115    1
    81    57   116    1
    82    57   117    1
    83    58   118    1
    84    58   119    1
    85    58   120    1
    86    59   121    1
    87    59   122    1
    88    59   123    1
    89    60    61    2
    90     1    47    1
    91     1    62    1
    92     2    63    1
    93     3    64    1
    94     4    65    1
    95     5     6    1
    96     7     8    2
    97     9    78    1
    98    15    79    1
    99    18    80    1
   100    18    81    1
   101    19    82    1
   102    19    83    1
   103    20    23    1
   104    21    84    1
   105    21    85    1
   106    22    86    1
   107    22    87    1
   108    27    45    1
   109    28    34    1
   110    32    58    1
   111    33    46    2
   112    36    51    1
   113    36    66    1
   114    37    52    1
   115    37    67    1
   116    38    53    1
   117    38    68    1
   118    42    48    1
   119    42    72    1
   120    43    44    2
   121    60    73    1
   122    61    74    1
   123    39    69    1
   124    39    57    1
   125    40    70    1
   126    40    50    1
   127    41    71    1
   128    41    49    1
