@<TRIPOS>MOLECULE
*****
 123 128 0 0 0
SMALL
GASTEIGER

@<TRIPOS>ATOM
     1 C         5.063701   2.069511   0.274456 C.3        1 UNL1     0.0009
     2 C         6.505666   2.734618   -0.682313 C.2        1 UNL1     -0.0787
     3 C         7.820621   2.55342   -1.260332 C.2        1 UNL1     -0.0649
     4 C         8.682719   3.62948   -2.242798 C.2        1 UNL1     -0.0542
     5 C         9.733612   3.754331   -3.184665 C.2        1 UNL1     0.0115
     6 C         10.925825   3.007474   -3.843568 C.3        1 UNL1     -0.0348
     7 C         9.798081   5.066402   -4.107326 C.2        1 UNL1     0.2441
     8 O         10.569479   5.991846   -3.895138 O.2        1 UNL1     -0.2702
     9 N         9.096608   4.96762   -5.321546 N.am        1 UNL1     -0.2772
     10 C         7.785964   5.350512   -5.151467 C.2        1 UNL1     0.1049
     11 C         6.96691   4.42857   -4.678819 C.2        1 UNL1     0.0801
     12 C         6.358642   7.166193   -4.190535 C.ar        1 UNL1     0.0753
     13 C         5.625039   6.131188   -3.527815 C.ar        1 UNL1     0.0305
     14 C         5.824764   4.721403   -3.855942 C.2        1 UNL1     0.0924
     15 N         7.150152   3.1056   -4.528144 N.pl3        1 UNL1     -0.3170
     16 C         5.891859   2.529802   -4.133926 C.3        1 UNL1     0.1275
     17 N         5.171837   3.64776   -3.42016 N.2        1 UNL1     -0.2557
     18 C         5.098306   2.261098   -5.408985 C.3        1 UNL1     0.0016
     19 C         5.932766   1.379529   -6.324464 C.3        1 UNL1     0.0026
     20 N         6.239333   0.138452   -5.626771 N.3        1 UNL1     -0.3018
     21 C         6.948787   0.298627   -4.355792 C.3        1 UNL1     0.0026
     22 C         6.090613   1.183554   -3.450068 C.3        1 UNL1     0.0016
     23 C         6.768552   -0.886138   -6.504714 C.3        1 UNL1     0.0012
     24 C         5.671989   -1.40696   -7.447079 C.3        1 UNL1     -0.0339
     25 C         5.723595   -0.703235   -8.813155 C.3        1 UNL1     -0.0615
     26 C         5.781733   -2.914983   -7.590616 C.3        1 UNL1     -0.0615
     27 C         6.077906   8.510873   -3.960015 C.ar        1 UNL1     0.1347
     28 C         5.064299   8.940988   -3.122369 C.ar        1 UNL1     0.0342
     29 C         4.387727   7.905394   -2.443429 C.ar        1 UNL1     0.1435
     30 C         4.682169   6.555173   -2.636889 C.ar        1 UNL1     0.0774
     31 O         3.30366   8.155715   -1.677174 O.3        1 UNL1     -0.4436
     32 C         2.639575   6.888089   -1.563213 C.3        1 UNL1     0.3143
     33 C         3.716016   5.852575   -1.818555 C.2        1 UNL1     0.2504
     34 C         4.542605   10.347168   -3.019449 C.3        1 UNL1     -0.0327
     35 O         2.234644   6.740673   -0.196629 O.2        1 UNL1     -0.4528
     36 C         -0.905796   4.609727   -0.265883 C.3        1 UNL1     0.0854
     37 C         -1.11734   3.166249   -0.865169 C.3        1 UNL1     0.0236
     38 C         -1.703574   2.086024   0.16497 C.3        1 UNL1     0.1131
     39 C         -1.019724   1.897665   1.57888 C.3        1 UNL1     0.0200
     40 C         0.642139   1.847977   1.713719 C.3        1 UNL1     0.0661
     41 C         1.685991   0.885086   0.785911 C.3        1 UNL1     0.0091
     42 C         3.402517   1.196308   0.21839 C.3        1 UNL1     0.0661
     43 C         7.368407   6.759669   -5.199184 C.2        1 UNL1     0.2131
     44 O         7.765617   7.492247   -6.087041 O.2        1 UNL1     -0.2851
     45 O         6.868859   9.455729   -4.610461 O.3        1 UNL1     -0.5056
     46 O         3.774033   4.711464   -1.418114 O.2        1 UNL1     -0.2836
     47 C         5.40823   1.994211   1.78628 C.3        1 UNL1     -0.0566
     48 O         3.902924   -0.136272   0.63425 O.3        1 UNL1     -0.3909
     49 C         0.921623   0.338778   -0.399324 C.3        1 UNL1     -0.0577
     50 O         1.173682   3.151274   1.842563 O.3        1 UNL1     -0.3910
     51 O         -1.088107   4.731387   1.126738 O.3        1 UNL1     -0.3753
     52 C         -0.013743   2.803296   -1.911729 C.3        1 UNL1     -0.0564
     53 O         -2.220616   0.842841   -0.497971 O.3        1 UNL1     -0.4608
     54 C         -2.418294   -0.364279   0.119859 C.2        1 UNL1     0.3042
     55 O         -1.789436   -1.406603   -0.05885 O.2        1 UNL1     -0.2512
     56 C         -3.500525   -0.336718   1.161362 C.3        1 UNL1     0.0332
     57 C         -1.826074   2.796026   2.628127 C.3        1 UNL1     -0.0567
     58 C         1.608108   6.829639   -2.713947 C.3        1 UNL1     0.0210
     59 C         -1.483122   6.02937   1.568402 C.3        1 UNL1     0.0372
     60 C         0.406352   5.23633   -0.583369 C.2        1 UNL1     -0.0208
     61 C         1.258787   5.900566   0.198225 C.2        1 UNL1     0.0882
     62 H         4.545088   3.023201   0.118801 H        1 UNL1     0.0365
     63 H         6.192672   3.770557   -0.828381 H        1 UNL1     0.0576
     64 H         8.32666   1.58564   -1.239488 H        1 UNL1     0.0615
     65 H         8.1434   4.573962   -2.13067 H        1 UNL1     0.0622
     66 H         -1.664216   5.22951   -0.764595 H        1 UNL1     0.0645
     67 H         -1.964598   3.286967   -1.562407 H        1 UNL1     0.0362
     68 H         -2.683033   2.543018   0.373146 H        1 UNL1     0.0741
     69 H         -1.319335   0.941045   1.98572 H        1 UNL1     0.0359
     70 H         0.738342   1.408785   2.725112 H        1 UNL1     0.0600
     71 H         1.75017   -0.010665   1.434346 H        1 UNL1     0.0348
     72 H         3.230749   1.886135   1.057407 H        1 UNL1     0.0602
     73 H         0.565322   5.201407   -1.632539 H        1 UNL1     0.0628
     74 H         1.198931   5.934904   1.286562 H        1 UNL1     0.1022
     75 H         11.00728   1.9684   -3.442662 H        1 UNL1     0.0279
     76 H         10.860299   2.840198   -4.916319 H        1 UNL1     0.0279
     77 H         11.901231   3.427387   -3.557288 H        1 UNL1     0.0279
     78 H         9.09453   4.000063   -5.637627 H        1 UNL1     0.1553
     79 H         7.860611   2.58357   -5.007378 H        1 UNL1     0.1484
     80 H         4.149354   1.779062   -5.144605 H        1 UNL1     0.0317
     81 H         4.843426   3.197921   -5.915985 H        1 UNL1     0.0317
     82 H         6.852097   1.887233   -6.65154 H        1 UNL1     0.0428
     83 H         5.348947   1.201833   -7.228139 H        1 UNL1     0.0428
     84 H         7.096021   -0.64095   -3.814194 H        1 UNL1     0.0428
     85 H         7.967059   0.684762   -4.501873 H        1 UNL1     0.0428
     86 H         6.572966   1.169521   -2.490315 H        1 UNL1     0.0317
     87 H         5.126277   0.698051   -3.256576 H        1 UNL1     0.0317
     88 H         7.566383   -0.437639   -7.111022 H        1 UNL1     0.0429
     89 H         7.221578   -1.706218   -5.932866 H        1 UNL1     0.0429
     90 H         4.690913   -1.219752   -6.994691 H        1 UNL1     0.0308
     91 H         6.702348   -0.825284   -9.286706 H        1 UNL1     0.0233
     92 H         4.951517   -1.095533   -9.479193 H        1 UNL1     0.0233
     93 H         5.540496   0.37525   -8.734544 H        1 UNL1     0.0233
     94 H         5.133586   -3.265404   -8.401138 H        1 UNL1     0.0233
     95 H         6.810243   -3.192962   -7.837308 H        1 UNL1     0.0233
     96 H         5.489388   -3.425884   -6.668942 H        1 UNL1     0.0233
     97 H         3.711708   10.423652   -2.324474 H        1 UNL1     0.0280
     98 H         5.305997   11.046016   -2.653251 H        1 UNL1     0.0280
     99 H         4.197039   10.686   -4.009839 H        1 UNL1     0.0280
     100 H         6.38788   10.091298   -5.110795 H        1 UNL1     0.2922
     101 H         4.540493   1.642674   2.344054 H        1 UNL1     0.0236
     102 H         5.798356   2.930415   2.184159 H        1 UNL1     0.0236
     103 H         6.195259   1.250465   1.99513 H        1 UNL1     0.0236
     104 H         4.28491   -0.041912   1.528763 H        1 UNL1     0.2098
     105 H         0.700558   1.074183   -1.168819 H        1 UNL1     0.0234
     106 H         1.353049   -0.557062   -0.84572 H        1 UNL1     0.0234
     107 H         0.0   -0.0   0.0 H        1 UNL1     0.0234
     108 H         0.982666   3.626019   1.010759 H        1 UNL1     0.2098
     109 H         0.995613   2.82926   -1.477864 H        1 UNL1     0.0234
     110 H         -0.180311   1.83423   -2.394337 H        1 UNL1     0.0234
     111 H         0.002994   3.516906   -2.74625 H        1 UNL1     0.0234
     112 H         -3.600933   -1.325121   1.619972 H        1 UNL1     0.0342
     113 H         -3.323206   0.427996   1.916089 H        1 UNL1     0.0342
     114 H         -4.450321   -0.098634   0.662997 H        1 UNL1     0.0342
     115 H         -2.885483   2.509711   2.681661 H        1 UNL1     0.0234
     116 H         -1.424857   2.761268   3.64295 H        1 UNL1     0.0234
     117 H         -1.90648   3.855498   2.329806 H        1 UNL1     0.0234
     118 H         0.669675   7.351214   -2.456442 H        1 UNL1     0.0309
     119 H         1.993353   7.230228   -3.656983 H        1 UNL1     0.0309
     120 H         1.277837   5.807899   -2.930916 H        1 UNL1     0.0309
     121 H         -0.685353   6.723777   1.306256 H        1 UNL1     0.0524
     122 H         -2.403581   6.378277   1.071353 H        1 UNL1     0.0524
     123 H         -1.641339   6.02868   2.64314 H        1 UNL1     0.0524
@<TRIPOS>BOND
     1     1     2    1
     2     1    42    1
     3     2     3    2
     4     3     4    1
     5     4     5    2
     6     5     7    1
     7     6    75    1
     8     6    76    1
     9     6    77    1
    10     7     9   am
    11     9    10    1
    12    10    11    2
    13    10    43    1
    14    11    14    1
    15    11    15    1
    16    12    13   ar
    17    12    27   ar
    18    12    43    1
    19    13    14    1
    20    13    30   ar
    21    14    17    2
    22    15    16    1
    23    16    17    1
    24    16    18    1
    25    16    22    1
    26    18    19    1
    27    19    20    1
    28    20    21    1
    29    21    22    1
    30    23    24    1
    31    23    88    1
    32    23    89    1
    33    24    25    1
    34    24    26    1
    35    24    90    1
    36    25    91    1
    37    25    92    1
    38    25    93    1
    39    26    94    1
    40    26    95    1
    41    26    96    1
    42    27    28   ar
    43    28    29   ar
    44    29    30   ar
    45    29    31    1
    46    30    33    1
    47    31    32    1
    48    32    33    1
    49    32    35    1
    50    34    97    1
    51    34    98    1
    52    34    99    1
    53    35    61    1
    54    36    37    1
    55    36    60    1
    56    37    38    1
    57    38    39    1
    58    39    40    1
    59    40    41    1
    60    41    42    1
    61    45   100    1
    62    47   101    1
    63    47   102    1
    64    47   103    1
    65    48   104    1
    66    49   105    1
    67    49   106    1
    68    49   107    1
    69    50   108    1
    70    51    59    1
    71    52   109    1
    72    52   110    1
    73    52   111    1
    74    53    54    1
    75    54    55    2
    76    54    56    1
    77    56   112    1
    78    56   113    1
    79    56   114    1
    80    57   115    1
    81    57   116    1
    82    57   117    1
    83    58   118    1
    84    58   119    1
    85    58   120    1
    86    59   121    1
    87    59   122    1
    88    59   123    1
    89    60    61    2
    90     1    47    1
    91     1    62    1
    92     2    63    1
    93     3    64    1
    94     4    65    1
    95     5     6    1
    96     7     8    2
    97     9    78    1
    98    15    79    1
    99    18    80    1
   100    18    81    1
   101    19    82    1
   102    19    83    1
   103    20    23    1
   104    21    84    1
   105    21    85    1
   106    22    86    1
   107    22    87    1
   108    27    45    1
   109    28    34    1
   110    32    58    1
   111    33    46    2
   112    36    51    1
   113    36    66    1
   114    37    52    1
   115    37    67    1
   116    38    53    1
   117    38    68    1
   118    42    48    1
   119    42    72    1
   120    43    44    2
   121    60    73    1
   122    61    74    1
   123    39    69    1
   124    39    57    1
   125    40    70    1
   126    40    50    1
   127    41    71    1
   128    41    49    1
