@<TRIPOS>MOLECULE
*****
 123 128 0 0 0
SMALL
GASTEIGER

@<TRIPOS>ATOM
     1 C         5.169806   1.745483   0.475045 C.3        1 UNL1     0.0009
     2 C         6.60606   2.545959   -0.381371 C.2        1 UNL1     -0.0787
     3 C         7.886809   2.4432   -1.048581 C.2        1 UNL1     -0.0649
     4 C         8.764434   3.673748   -1.811394 C.2        1 UNL1     -0.0542
     5 C         9.783336   3.960799   -2.752945 C.2        1 UNL1     0.0115
     6 C         10.909528   3.330003   -3.6173 C.3        1 UNL1     -0.0348
     7 C         9.87935   5.44104   -3.366669 C.2        1 UNL1     0.2441
     8 O         10.704701   6.263582   -2.994181 O.2        1 UNL1     -0.2702
     9 N         9.127559   5.643237   -4.537172 N.am        1 UNL1     -0.2772
     10 C         7.845746   6.032808   -4.223306 C.2        1 UNL1     0.1049
     11 C         6.999358   5.063722   -3.925447 C.2        1 UNL1     0.0801
     12 C         6.551259   7.647587   -2.818271 C.ar        1 UNL1     0.0753
     13 C         5.791667   6.522648   -2.364243 C.ar        1 UNL1     0.0305
     14 C         5.906195   5.213756   -3.003567 C.2        1 UNL1     0.0924
     15 N         7.120295   3.733867   -4.078377 N.pl3        1 UNL1     -0.3170
     16 C         5.850271   3.137588   -3.759404 C.3        1 UNL1     0.1275
     17 N         5.216409   4.098181   -2.783082 N.2        1 UNL1     -0.2557
     18 C         4.99555   3.191557   -5.022037 C.3        1 UNL1     0.0016
     19 C         5.747958   2.501264   -6.148521 C.3        1 UNL1     0.0026
     20 N         6.017199   1.124725   -5.756501 N.3        1 UNL1     -0.3018
     21 C         6.782282   0.969416   -4.517592 C.3        1 UNL1     0.0026
     22 C         6.006004   1.666126   -3.398716 C.3        1 UNL1     0.0016
     23 C         6.459116   0.299417   -6.862946 C.3        1 UNL1     0.0012
     24 C         5.301896   0.046517   -7.842048 C.3        1 UNL1     -0.0339
     25 C         5.376682   0.987064   -9.056064 C.3        1 UNL1     -0.0615
     26 C         5.286971   -1.412119   -8.26506 C.3        1 UNL1     -0.0615
     27 C         6.3488   8.918065   -2.284402 C.ar        1 UNL1     0.1347
     28 C         5.391508   9.193238   -1.324234 C.ar        1 UNL1     0.0342
     29 C         4.689425   8.061764   -0.857317 C.ar        1 UNL1     0.1435
     30 C         4.906704   6.7771   -1.356965 C.ar        1 UNL1     0.0774
     31 O         3.649869   8.180539   -0.002787 O.3        1 UNL1     -0.4436
     32 C         2.926639   6.947842   -0.137951 C.3        1 UNL1     0.3143
     33 C         3.938041   5.951103   -0.666902 C.2        1 UNL1     0.2504
     34 C         4.946827   10.561917   -0.889406 C.3        1 UNL1     -0.0327
     35 O         2.567555   6.517828   1.180911 O.2        1 UNL1     -0.4528
     36 C         -0.678189   4.587306   0.79839 C.3        1 UNL1     0.0854
     37 C         -0.986241   3.322782   -0.092455 C.3        1 UNL1     0.0236
     38 C         -1.586948   2.066173   0.702422 C.3        1 UNL1     0.1131
     39 C         -0.859761   1.540674   2.005234 C.3        1 UNL1     0.0200
     40 C         0.801334   1.393516   2.044547 C.3        1 UNL1     0.0661
     41 C         1.758067   0.618061   0.877952 C.3        1 UNL1     0.0091
     42 C         3.465174   0.976055   0.309598 C.3        1 UNL1     0.0661
     43 C         7.499346   7.433492   -3.939678 C.2        1 UNL1     0.2131
     44 O         7.899094   8.327687   -4.66311 O.2        1 UNL1     -0.2851
     45 O         7.16148   9.950081   -2.749086 O.3        1 UNL1     -0.5056
     46 O         3.952928   4.748191   -0.530392 O.2        1 UNL1     -0.2836
     47 C         5.567921   1.322458   1.914676 C.3        1 UNL1     -0.0566
     48 O         3.912334   -0.435131   0.397446 O.3        1 UNL1     -0.3909
     49 C         0.921715   0.380452   -0.359607 C.3        1 UNL1     -0.0577
     50 O         1.403458   2.612588   2.430594 O.3        1 UNL1     -0.3910
     51 O         -0.800335   4.404427   2.190894 O.3        1 UNL1     -0.3753
     52 C         0.056258   3.155657   -1.245804 C.3        1 UNL1     -0.0564
     53 O         -2.192066   1.023554   -0.191503 O.3        1 UNL1     -0.4608
     54 C         -2.427369   -0.2813   0.154789 C.2        1 UNL1     0.3042
     55 O         -1.859011   -1.28303   -0.278045 O.2        1 UNL1     -0.2512
     56 C         -3.467415   -0.440799   1.226972 C.3        1 UNL1     0.0332
     57 C         -1.578113   2.216485   3.264371 C.3        1 UNL1     -0.0567
     58 C         1.850037   7.188914   -1.221621 C.3        1 UNL1     0.0210
     59 C         -1.111108   5.587304   2.925801 C.3        1 UNL1     0.0372
     60 C         0.651131   5.213825   0.562716 C.2        1 UNL1     -0.0208
     61 C         1.565882   5.652219   1.428619 C.2        1 UNL1     0.0882
     62 H         4.69509   2.730582   0.55833 H        1 UNL1     0.0365
     63 H         6.34112   3.600541   -0.280707 H        1 UNL1     0.0576
     64 H         8.34307   1.474803   -1.265698 H        1 UNL1     0.0615
     65 H         8.278884   4.591327   -1.468215 H        1 UNL1     0.0622
     66 H         -1.422507   5.333153   0.485743 H        1 UNL1     0.0645
     67 H         -1.852398   3.630162   -0.703888 H        1 UNL1     0.0362
     68 H         -2.532997   2.505766   1.053523 H        1 UNL1     0.0741
     69 H         -1.19208   0.530887   2.205992 H        1 UNL1     0.0359
     70 H         0.913757   0.737293   2.928738 H        1 UNL1     0.0600
     71 H         1.801201   -0.401093   1.309716 H        1 UNL1     0.0348
     72 H         3.361342   1.469065   1.287082 H        1 UNL1     0.0602
     73 H         0.767634   5.405975   -0.474951 H        1 UNL1     0.0628
     74 H         1.549766   5.446704   2.499479 H        1 UNL1     0.1022
     75 H         10.934395   2.221947   -3.480816 H        1 UNL1     0.0279
     76 H         10.807778   3.431   -4.6955 H        1 UNL1     0.0279
     77 H         11.916233   3.613059   -3.276529 H        1 UNL1     0.0279
     78 H         9.063798   4.77085   -5.057704 H        1 UNL1     0.1553
     79 H         7.784141   3.302193   -4.694736 H        1 UNL1     0.1484
     80 H         4.034038   2.702612   -4.824063 H        1 UNL1     0.0317
     81 H         4.769649   4.227246   -5.297659 H        1 UNL1     0.0317
     82 H         6.678813   3.030351   -6.400492 H        1 UNL1     0.0428
     83 H         5.121483   2.552815   -7.039544 H        1 UNL1     0.0428
     84 H         6.901947   -0.072173   -4.203609 H        1 UNL1     0.0428
     85 H         7.812612   1.335818   -4.624768 H        1 UNL1     0.0428
     86 H         6.523564   1.419555   -2.490243 H        1 UNL1     0.0317
     87 H         5.026236   1.190168   -3.269821 H        1 UNL1     0.0317
     88 H         7.254948   0.837806   -7.39406 H        1 UNL1     0.0429
     89 H         6.891226   -0.645135   -6.508154 H        1 UNL1     0.0429
     90 H         4.350193   0.218289   -7.325358 H        1 UNL1     0.0308
     91 H         6.330778   0.883244   -9.581445 H        1 UNL1     0.0233
     92 H         4.559784   0.784399   -9.752638 H        1 UNL1     0.0233
     93 H         5.282528   2.042482   -8.77311 H        1 UNL1     0.0233
     94 H         4.593433   -1.555989   -9.10061 H        1 UNL1     0.0233
     95 H         6.28364   -1.71473   -8.598285 H        1 UNL1     0.0233
     96 H         4.976997   -2.062948   -7.442682 H        1 UNL1     0.0233
     97 H         4.14828   10.516666   -0.154895 H        1 UNL1     0.0280
     98 H         5.758511   11.129873   -0.416278 H        1 UNL1     0.0280
     99 H         4.581222   11.126038   -1.763017 H        1 UNL1     0.0280
     100 H         6.694954   10.704371   -3.063765 H        1 UNL1     0.2922
     101 H         4.702299   0.903633   2.427453 H        1 UNL1     0.0236
     102 H         6.03156   2.126668   2.484999 H        1 UNL1     0.0236
     103 H         6.314109   0.510427   1.916291 H        1 UNL1     0.0236
     104 H         4.327709   -0.558941   1.273291 H        1 UNL1     0.2098
     105 H         0.709154   1.276752   -0.936907 H        1 UNL1     0.0234
     106 H         1.289228   -0.411115   -1.012511 H        1 UNL1     0.0234
     107 H         0.0   -0.0   0.0 H        1 UNL1     0.0234
     108 H         1.219552   3.262997   1.725672 H        1 UNL1     0.2098
     109 H         1.083021   3.055276   -0.86713 H        1 UNL1     0.0234
     110 H         -0.171469   2.317972   -1.913762 H        1 UNL1     0.0234
     111 H         0.068588   4.030047   -1.910059 H        1 UNL1     0.0234
     112 H         -3.591464   -1.500363   1.47045 H        1 UNL1     0.0342
     113 H         -3.230065   0.139503   2.117342 H        1 UNL1     0.0342
     114 H         -4.424626   -0.071206   0.834145 H        1 UNL1     0.0342
     115 H         -2.650476   1.979704   3.298438 H        1 UNL1     0.0234
     116 H         -1.148162   1.931375   4.226609 H        1 UNL1     0.0234
     117 H         -1.604683   3.318726   3.216415 H        1 UNL1     0.0234
     118 H         0.949509   7.677371   -0.809958 H        1 UNL1     0.0309
     119 H         2.218302   7.773725   -2.070491 H        1 UNL1     0.0309
     120 H         1.4609   6.255379   -1.642561 H        1 UNL1     0.0309
     121 H         -0.272492   6.274178   2.814969 H        1 UNL1     0.0524
     122 H         -2.010051   6.095855   2.539388 H        1 UNL1     0.0524
     123 H         -1.264265   5.34888   3.97451 H        1 UNL1     0.0524
@<TRIPOS>BOND
     1     1     2    1
     2     1    42    1
     3     2     3    2
     4     3     4    1
     5     4     5    2
     6     5     7    1
     7     6    75    1
     8     6    76    1
     9     6    77    1
    10     7     9   am
    11     9    10    1
    12    10    11    2
    13    10    43    1
    14    11    14    1
    15    11    15    1
    16    12    13   ar
    17    12    27   ar
    18    12    43    1
    19    13    14    1
    20    13    30   ar
    21    14    17    2
    22    15    16    1
    23    16    17    1
    24    16    18    1
    25    16    22    1
    26    18    19    1
    27    19    20    1
    28    20    21    1
    29    21    22    1
    30    23    24    1
    31    23    88    1
    32    23    89    1
    33    24    25    1
    34    24    26    1
    35    24    90    1
    36    25    91    1
    37    25    92    1
    38    25    93    1
    39    26    94    1
    40    26    95    1
    41    26    96    1
    42    27    28   ar
    43    28    29   ar
    44    29    30   ar
    45    29    31    1
    46    30    33    1
    47    31    32    1
    48    32    33    1
    49    32    35    1
    50    34    97    1
    51    34    98    1
    52    34    99    1
    53    35    61    1
    54    36    37    1
    55    36    60    1
    56    37    38    1
    57    38    39    1
    58    39    40    1
    59    40    41    1
    60    41    42    1
    61    45   100    1
    62    47   101    1
    63    47   102    1
    64    47   103    1
    65    48   104    1
    66    49   105    1
    67    49   106    1
    68    49   107    1
    69    50   108    1
    70    51    59    1
    71    52   109    1
    72    52   110    1
    73    52   111    1
    74    53    54    1
    75    54    55    2
    76    54    56    1
    77    56   112    1
    78    56   113    1
    79    56   114    1
    80    57   115    1
    81    57   116    1
    82    57   117    1
    83    58   118    1
    84    58   119    1
    85    58   120    1
    86    59   121    1
    87    59   122    1
    88    59   123    1
    89    60    61    2
    90     1    47    1
    91     1    62    1
    92     2    63    1
    93     3    64    1
    94     4    65    1
    95     5     6    1
    96     7     8    2
    97     9    78    1
    98    15    79    1
    99    18    80    1
   100    18    81    1
   101    19    82    1
   102    19    83    1
   103    20    23    1
   104    21    84    1
   105    21    85    1
   106    22    86    1
   107    22    87    1
   108    27    45    1
   109    28    34    1
   110    32    58    1
   111    33    46    2
   112    36    51    1
   113    36    66    1
   114    37    52    1
   115    37    67    1
   116    38    53    1
   117    38    68    1
   118    42    48    1
   119    42    72    1
   120    43    44    2
   121    60    73    1
   122    61    74    1
   123    39    69    1
   124    39    57    1
   125    40    70    1
   126    40    50    1
   127    41    71    1
   128    41    49    1
