@<TRIPOS>MOLECULE
*****
 123 128 0 0 0
SMALL
GASTEIGER

@<TRIPOS>ATOM
     1 C         3.921494   0.484166   3.762829 C.3        1 UNL1     0.0009
     2 C         5.587847   -0.127574   4.297693 C.2        1 UNL1     -0.0787
     3 C         6.410187   -0.903429   5.202045 C.2        1 UNL1     -0.0649
     4 C         8.072368   -1.207147   5.095898 C.2        1 UNL1     -0.0542
     5 C         9.126442   -2.056499   5.513756 C.2        1 UNL1     0.0115
     6 C         9.503499   -3.20385   6.490862 C.3        1 UNL1     -0.0348
     7 C         10.503093   -2.050047   4.688056 C.2        1 UNL1     0.2441
     8 O         11.507782   -1.468507   5.07398 O.2        1 UNL1     -0.2702
     9 N         10.557196   -2.969435   3.626006 N.am        1 UNL1     -0.2772
     10 C         10.054474   -2.405035   2.476204 C.2        1 UNL1     0.1049
     11 C         8.740739   -2.427998   2.3428 C.2        1 UNL1     0.0801
     12 C         10.203199   -0.362249   1.040155 C.ar        1 UNL1     0.0753
     13 C         8.774067   -0.311526   1.100313 C.ar        1 UNL1     0.0305
     14 C         7.991369   -1.418831   1.644657 C.2        1 UNL1     0.0924
     15 N         7.812621   -3.098805   3.046463 N.pl3        1 UNL1     -0.3170
     16 C         6.545743   -2.915627   2.38941 C.3        1 UNL1     0.1275
     17 N         6.672518   -1.585075   1.688494 N.2        1 UNL1     -0.2557
     18 C         6.451384   -3.967172   1.288025 C.3        1 UNL1     0.0016
     19 C         6.643213   -5.341273   1.909827 C.3        1 UNL1     0.0026
     20 N         5.61346   -5.54585   2.919176 N.3        1 UNL1     -0.3018
     21 C         5.584768   -4.546832   3.989461 C.3        1 UNL1     0.0026
     22 C         5.386595   -3.174865   3.342678 C.3        1 UNL1     0.0016
     23 C         5.519768   -6.924014   3.357956 C.3        1 UNL1     0.0012
     24 C         6.256499   -7.852103   2.379367 C.3        1 UNL1     -0.0339
     25 C         7.743341   -7.98964   2.746027 C.3        1 UNL1     -0.0615
     26 C         5.566857   -9.204205   2.324652 C.3        1 UNL1     -0.0615
     27 C         10.935209   0.642093   0.411206 C.ar        1 UNL1     0.1347
     28 C         10.3495   1.721901   -0.225199 C.ar        1 UNL1     0.0342
     29 C         8.944108   1.776265   -0.110826 C.ar        1 UNL1     0.1435
     30 C         8.200029   0.796271   0.547337 C.ar        1 UNL1     0.0774
     31 O         8.218871   2.706345   -0.769605 O.3        1 UNL1     -0.4436
     32 C         6.886804   2.172049   -0.801171 C.3        1 UNL1     0.3143
     33 C         6.8222   1.200147   0.359624 C.2        1 UNL1     0.2504
     34 C         11.04889   2.697518   -1.130254 C.3        1 UNL1     -0.0327
     35 O         5.989456   3.246693   -0.495952 O.2        1 UNL1     -0.4528
     36 C         2.761076   2.459612   -2.330659 C.3        1 UNL1     0.0854
     37 C         1.843864   1.180563   -2.229277 C.3        1 UNL1     0.0236
     38 C         0.308394   1.476458   -1.873582 C.3        1 UNL1     0.1131
     39 C         -0.047958   2.393202   -0.634686 C.3        1 UNL1     0.0200
     40 C         0.761006   2.20976   0.812506 C.3        1 UNL1     0.0661
     41 C         1.012266   0.745774   1.631789 C.3        1 UNL1     0.0091
     42 C         2.407101   0.198659   2.690327 C.3        1 UNL1     0.0661
     43 C         10.875375   -1.564939   1.591493 C.2        1 UNL1     0.2131
     44 O         11.995458   -1.917265   1.268974 O.2        1 UNL1     -0.2851
     45 O         12.324594   0.540172   0.43687 O.3        1 UNL1     -0.5056
     46 O         5.854543   0.854212   0.999798 O.2        1 UNL1     -0.2836
     47 C         3.422664   1.598256   4.72197 C.3        1 UNL1     -0.0566
     48 O         1.533369   -0.315268   3.772726 O.3        1 UNL1     -0.3909
     49 C         0.693844   -0.398401   0.695326 C.3        1 UNL1     -0.0577
     50 O         1.945877   2.980238   0.825486 O.3        1 UNL1     -0.3910
     51 O         2.169819   3.675019   -1.929868 O.3        1 UNL1     -0.3753
     52 C         2.614527   -0.042248   -1.632818 C.3        1 UNL1     -0.0564
     53 O         -0.601925   0.310164   -2.125382 O.3        1 UNL1     -0.4608
     54 C         -1.864215   0.161646   -1.613039 C.2        1 UNL1     0.3042
     55 O         -2.842843   0.878468   -1.818689 O.2        1 UNL1     -0.2512
     56 C         -2.025228   -1.061366   -0.7557 C.3        1 UNL1     0.0332
     57 C         -0.268111   3.879775   -1.182234 C.3        1 UNL1     -0.0567
     58 C         6.764823   1.379008   -2.123191 C.3        1 UNL1     0.0210
     59 C         2.753405   4.843542   -2.50419 C.3        1 UNL1     0.0372
     60 C         4.062195   2.358714   -1.615069 C.2        1 UNL1     -0.0208
     61 C         4.682795   3.233344   -0.822212 C.2        1 UNL1     0.0882
     62 H         4.400511   0.991167   2.91654 H        1 UNL1     0.0365
     63 H         6.234372   0.401997   3.594819 H        1 UNL1     0.0576
     64 H         5.970325   -1.524639   5.985453 H        1 UNL1     0.0615
     65 H         8.421707   -0.487502   4.350541 H        1 UNL1     0.0622
     66 H         3.009685   2.53705   -3.398481 H        1 UNL1     0.0645
     67 H         1.763225   0.825219   -3.271288 H        1 UNL1     0.0362
     68 H         0.023455   2.061724   -2.761161 H        1 UNL1     0.0741
     69 H         -1.077755   2.215321   -0.354891 H        1 UNL1     0.0359
     70 H         0.070947   2.752187   1.486784 H        1 UNL1     0.0600
     71 H         0.12338   0.739111   2.292694 H        1 UNL1     0.0348
     72 H         2.466836   1.296099   2.653286 H        1 UNL1     0.0602
     73 H         4.560729   1.472336   -1.920103 H        1 UNL1     0.0628
     74 H         4.221255   4.135105   -0.418422 H        1 UNL1     0.1022
     75 H         9.721832   -4.142851   5.927265 H        1 UNL1     0.0279
     76 H         10.410373   -3.06509   7.075151 H        1 UNL1     0.0279
     77 H         8.65942   -3.520462   7.120932 H        1 UNL1     0.0279
     78 H         9.982458   -3.780241   3.845887 H        1 UNL1     0.1553
     79 H         8.017322   -3.896308   3.620067 H        1 UNL1     0.1484
     80 H         5.474846   -3.882969   0.796039 H        1 UNL1     0.0317
     81 H         7.207761   -3.79328   0.515168 H        1 UNL1     0.0317
     82 H         7.64856   -5.456254   2.34107 H        1 UNL1     0.0428
     83 H         6.57402   -6.075805   1.10688 H        1 UNL1     0.0428
     84 H         4.753556   -4.677546   4.689326 H        1 UNL1     0.0428
     85 H         6.479621   -4.602444   4.624648 H        1 UNL1     0.0428
     86 H         5.237551   -2.489845   4.156632 H        1 UNL1     0.0317
     87 H         4.428762   -3.147057   2.808936 H        1 UNL1     0.0317
     88 H         5.999522   -7.002401   4.342327 H        1 UNL1     0.0429
     89 H         4.473863   -7.231986   3.484486 H        1 UNL1     0.0429
     90 H         6.183424   -7.437414   1.366991 H        1 UNL1     0.0308
     91 H         8.382242   -7.878256   1.864833 H        1 UNL1     0.0233
     92 H         8.02787   -7.243764   3.491897 H        1 UNL1     0.0233
     93 H         7.976235   -8.966723   3.186371 H        1 UNL1     0.0233
     94 H         6.269808   -9.973344   1.986834 H        1 UNL1     0.0233
     95 H         5.214014   -9.484265   3.321162 H        1 UNL1     0.0233
     96 H         4.714612   -9.190035   1.639491 H        1 UNL1     0.0233
     97 H         11.608219   3.442308   -0.571981 H        1 UNL1     0.0280
     98 H         11.777598   2.204011   -1.786525 H        1 UNL1     0.0280
     99 H         10.305605   3.219858   -1.754581 H        1 UNL1     0.0280
     100 H         12.674034   -0.175112   -0.065008 H        1 UNL1     0.2922
     101 H         3.34513   2.541308   4.181325 H        1 UNL1     0.0236
     102 H         4.028792   1.691701   5.622447 H        1 UNL1     0.0236
     103 H         2.401689   1.401676   5.08961 H        1 UNL1     0.0236
     104 H         1.159698   0.45642   4.241594 H        1 UNL1     0.2098
     105 H         1.547944   -0.772088   0.136147 H        1 UNL1     0.0234
     106 H         0.151781   -1.225116   1.154277 H        1 UNL1     0.0234
     107 H         -0.0   0.0   0.0 H        1 UNL1     0.0234
     108 H         1.733788   3.845317   0.424955 H        1 UNL1     0.2098
     109 H         1.935357   -0.837499   -1.295155 H        1 UNL1     0.0234
     110 H         3.355783   -0.461453   -2.321694 H        1 UNL1     0.0234
     111 H         3.202346   0.241462   -0.749685 H        1 UNL1     0.0234
     112 H         -1.610391   -0.875377   0.239622 H        1 UNL1     0.0342
     113 H         -3.063595   -1.383264   -0.692304 H        1 UNL1     0.0342
     114 H         -1.450637   -1.878787   -1.21268 H        1 UNL1     0.0342
     115 H         -0.188085   4.626447   -0.380196 H        1 UNL1     0.0234
     116 H         0.428237   4.169815   -1.971553 H        1 UNL1     0.0234
     117 H         -1.292909   4.067193   -1.546382 H        1 UNL1     0.0234
     118 H         6.344506   1.993869   -2.938229 H        1 UNL1     0.0309
     119 H         7.714449   0.946579   -2.453975 H        1 UNL1     0.0309
     120 H         6.06067   0.543126   -2.048514 H        1 UNL1     0.0309
     121 H         3.257053   4.543188   -3.422604 H        1 UNL1     0.0524
     122 H         1.997348   5.600171   -2.772383 H        1 UNL1     0.0524
     123 H         3.465659   5.286166   -1.813631 H        1 UNL1     0.0524
@<TRIPOS>BOND
     1     1     2    1
     2     1    42    1
     3     2     3    2
     4     3     4    1
     5     4     5    2
     6     5     7    1
     7     6    75    1
     8     6    76    1
     9     6    77    1
    10     7     9   am
    11     9    10    1
    12    10    11    2
    13    10    43    1
    14    11    14    1
    15    11    15    1
    16    12    13   ar
    17    12    27   ar
    18    12    43    1
    19    13    14    1
    20    13    30   ar
    21    14    17    2
    22    15    16    1
    23    16    17    1
    24    16    18    1
    25    16    22    1
    26    18    19    1
    27    19    20    1
    28    20    21    1
    29    21    22    1
    30    23    24    1
    31    23    88    1
    32    23    89    1
    33    24    25    1
    34    24    26    1
    35    24    90    1
    36    25    91    1
    37    25    92    1
    38    25    93    1
    39    26    94    1
    40    26    95    1
    41    26    96    1
    42    27    28   ar
    43    28    29   ar
    44    29    30   ar
    45    29    31    1
    46    30    33    1
    47    31    32    1
    48    32    33    1
    49    32    35    1
    50    34    97    1
    51    34    98    1
    52    34    99    1
    53    35    61    1
    54    36    37    1
    55    36    60    1
    56    37    38    1
    57    38    39    1
    58    39    40    1
    59    40    41    1
    60    41    42    1
    61    45   100    1
    62    47   101    1
    63    47   102    1
    64    47   103    1
    65    48   104    1
    66    49   105    1
    67    49   106    1
    68    49   107    1
    69    50   108    1
    70    51    59    1
    71    52   109    1
    72    52   110    1
    73    52   111    1
    74    53    54    1
    75    54    55    2
    76    54    56    1
    77    56   112    1
    78    56   113    1
    79    56   114    1
    80    57   115    1
    81    57   116    1
    82    57   117    1
    83    58   118    1
    84    58   119    1
    85    58   120    1
    86    59   121    1
    87    59   122    1
    88    59   123    1
    89    60    61    2
    90     1    47    1
    91     1    62    1
    92     2    63    1
    93     3    64    1
    94     4    65    1
    95     5     6    1
    96     7     8    2
    97     9    78    1
    98    15    79    1
    99    18    80    1
   100    18    81    1
   101    19    82    1
   102    19    83    1
   103    20    23    1
   104    21    84    1
   105    21    85    1
   106    22    86    1
   107    22    87    1
   108    27    45    1
   109    28    34    1
   110    32    58    1
   111    33    46    2
   112    36    51    1
   113    36    66    1
   114    37    52    1
   115    37    67    1
   116    38    53    1
   117    38    68    1
   118    42    48    1
   119    42    72    1
   120    43    44    2
   121    60    73    1
   122    61    74    1
   123    39    69    1
   124    39    57    1
   125    40    70    1
   126    40    50    1
   127    41    71    1
   128    41    49    1
