@<TRIPOS>MOLECULE
*****
 123 128 0 0 0
SMALL
GASTEIGER

@<TRIPOS>ATOM
     1 C         2.474819   -2.044396   -4.439309 C.3        1 UNL1     0.0009
     2 C         2.646219   -1.945233   -6.282629 C.2        1 UNL1     -0.0787
     3 C         2.342276   -2.458541   -7.601788 C.2        1 UNL1     -0.0649
     4 C         2.749849   -1.784007   -9.100202 C.2        1 UNL1     -0.0542
     5 C         2.443845   -1.757224   -10.483214 C.2        1 UNL1     0.0115
     6 C         1.622656   -2.454883   -11.60225 C.3        1 UNL1     -0.0348
     7 C         2.967637   -0.526635   -11.371066 C.2        1 UNL1     0.2441
     8 O         3.937495   -0.606263   -12.11239 O.2        1 UNL1     -0.2702
     9 N         2.086887   0.566836   -11.439994 N.am        1 UNL1     -0.2772
     10 C         2.315709   1.434253   -10.396658 C.2        1 UNL1     0.1049
     11 C         1.740808   1.12748   -9.247919 C.2        1 UNL1     0.0801
     12 C         4.137941   2.661934   -9.200997 C.ar        1 UNL1     0.0753
     13 C         3.594559   2.128879   -7.988893 C.ar        1 UNL1     0.0305
     14 C         2.300142   1.451462   -7.963568 C.2        1 UNL1     0.0924
     15 N         0.792451   0.215597   -8.972939 N.pl3        1 UNL1     -0.3170
     16 C         0.390076   0.399279   -7.603775 C.3        1 UNL1     0.1275
     17 N         1.604602   0.988404   -6.928807 N.2        1 UNL1     -0.2557
     18 C         -0.674785   1.491766   -7.588112 C.3        1 UNL1     0.0016
     19 C         -1.801693   1.08595   -8.524585 C.3        1 UNL1     0.0026
     20 N         -2.349333   -0.186025   -8.07381 N.3        1 UNL1     -0.3018
     21 C         -1.385241   -1.285525   -7.996392 C.3        1 UNL1     0.0026
     22 C         -0.264525   -0.858143   -7.047058 C.3        1 UNL1     0.0016
     23 C         -3.610343   -0.51379   -8.708687 C.3        1 UNL1     0.0012
     24 C         -3.499537   -0.366542   -10.234398 C.3        1 UNL1     -0.0339
     25 C         -4.806893   0.165127   -10.844484 C.3        1 UNL1     -0.0615
     26 C         -2.317179   0.518916   -10.587636 C.3        1 UNL1     -0.0615
     27 C         5.312392   3.41078   -9.197434 C.ar        1 UNL1     0.1347
     28 C         6.007779   3.724873   -8.043383 C.ar        1 UNL1     0.0342
     29 C         5.481076   3.148389   -6.868047 C.ar        1 UNL1     0.1435
     30 C         4.325605   2.366048   -6.861135 C.ar        1 UNL1     0.0774
     31 O         5.981218   3.449979   -5.649889 O.3        1 UNL1     -0.4436
     32 C         4.941315   3.084334   -4.730226 C.3        1 UNL1     0.3143
     33 C         4.107897   2.053322   -5.464148 C.2        1 UNL1     0.2504
     34 C         7.124702   4.724915   -7.931585 C.3        1 UNL1     -0.0327
     35 O         5.563751   2.410673   -3.629315 O.2        1 UNL1     -0.4528
     36 C         3.39017   3.134738   -0.602871 C.3        1 UNL1     0.0854
     37 C         1.855313   2.843712   -0.385982 C.3        1 UNL1     0.0236
     38 C         1.509442   1.977107   0.918285 C.3        1 UNL1     0.1131
     39 C         2.27379   0.617732   1.183125 C.3        1 UNL1     0.0200
     40 C         2.5371   -0.46004   -0.062472 C.3        1 UNL1     0.0661
     41 C         1.366118   -1.024322   -1.152425 C.3        1 UNL1     0.0091
     42 C         1.517424   -1.512603   -2.914268 C.3        1 UNL1     0.0661
     43 C         3.361423   2.466698   -10.450462 C.2        1 UNL1     0.2131
     44 O         3.485788   3.16959   -11.436977 O.2        1 UNL1     -0.2851
     45 O         5.798383   3.854318   -10.425654 O.3        1 UNL1     -0.5056
     46 O         3.433804   1.160788   -5.000644 O.2        1 UNL1     -0.2836
     47 C         3.340938   -3.204424   -3.878815 C.3        1 UNL1     -0.0566
     48 O         0.758584   -2.775728   -2.747558 O.3        1 UNL1     -0.3909
     49 C         0.134884   -0.153141   -1.04018 C.3        1 UNL1     -0.0577
     50 O         3.729006   -0.145389   -0.753905 O.3        1 UNL1     -0.3910
     51 O         4.273616   2.460561   0.264561 O.3        1 UNL1     -0.3753
     52 C         1.104352   2.640292   -1.742311 C.3        1 UNL1     -0.0564
     53 O         0.056842   2.010916   1.293967 O.3        1 UNL1     -0.4608
     54 C         -0.659608   0.955677   1.795066 C.2        1 UNL1     0.3042
     55 O         -1.460388   0.242799   1.191415 O.2        1 UNL1     -0.2512
     56 C         -0.350137   0.647074   3.232322 C.3        1 UNL1     0.0332
     57 C         3.495819   0.934941   2.165061 C.3        1 UNL1     -0.0567
     58 C         4.085242   4.353409   -4.51087 C.3        1 UNL1     0.0210
     59 C         5.518163   3.122457   0.485607 C.3        1 UNL1     0.0372
     60 C         3.885223   2.900433   -1.986773 C.2        1 UNL1     -0.0208
     61 C         4.987994   2.286733   -2.418064 C.2        1 UNL1     0.0882
     62 H         3.07883   -1.133084   -4.353331 H        1 UNL1     0.0365
     63 H         3.349559   -1.115286   -6.377341 H        1 UNL1     0.0576
     64 H         1.646804   -3.288215   -7.746932 H        1 UNL1     0.0615
     65 H         3.499534   -1.02828   -8.850537 H        1 UNL1     0.0622
     66 H         3.494348   4.214233   -0.424312 H        1 UNL1     0.0645
     67 H         1.431756   3.826474   -0.115174 H        1 UNL1     0.0362
     68 H         1.864631   2.668225   1.697849 H        1 UNL1     0.0741
     69 H         1.703007   0.029345   1.889111 H        1 UNL1     0.0359
     70 H         2.786595   -1.367477   0.520084 H        1 UNL1     0.0600
     71 H         1.033939   -1.938794   -0.62294 H        1 UNL1     0.0348
     72 H         2.535671   -1.550164   -2.500654 H        1 UNL1     0.0602
     73 H         3.268068   3.426332   -2.672191 H        1 UNL1     0.0628
     74 H         5.640875   1.678928   -1.790722 H        1 UNL1     0.1022
     75 H         1.957481   -3.512157   -11.733015 H        1 UNL1     0.0279
     76 H         0.55583   -2.567522   -11.422631 H        1 UNL1     0.0279
     77 H         1.824319   -2.038618   -12.600126 H        1 UNL1     0.0279
     78 H         1.1268   0.238273   -11.360264 H        1 UNL1     0.1553
     79 H         0.190982   -0.189054   -9.666788 H        1 UNL1     0.1484
     80 H         -1.035724   1.624519   -6.561045 H        1 UNL1     0.0317
     81 H         -0.253135   2.453659   -7.898957 H        1 UNL1     0.0317
     82 H         -1.460666   1.022404   -9.568412 H        1 UNL1     0.0428
     83 H         -2.54907   1.879584   -8.499616 H        1 UNL1     0.0428
     84 H         -1.803515   -2.207153   -7.579907 H        1 UNL1     0.0428
     85 H         -1.022976   -1.582293   -8.990379 H        1 UNL1     0.0428
     86 H         0.348036   -1.730082   -6.911115 H        1 UNL1     0.0317
     87 H         -0.671582   -0.675221   -6.04509 H        1 UNL1     0.0317
     88 H         -3.848748   -1.559641   -8.474907 H        1 UNL1     0.0429
     89 H         -4.428751   0.099473   -8.310077 H        1 UNL1     0.0429
     90 H         -3.281879   -1.346707   -10.674983 H        1 UNL1     0.0308
     91 H         -5.195086   1.014655   -10.27465 H        1 UNL1     0.0233
     92 H         -4.653012   0.46971   -11.882346 H        1 UNL1     0.0233
     93 H         -5.598258   -0.593981   -10.862703 H        1 UNL1     0.0233
     94 H         -2.448018   0.941775   -11.589588 H        1 UNL1     0.0233
     95 H         -2.2464   1.348264   -9.878318 H        1 UNL1     0.0233
     96 H         -1.378768   -0.042347   -10.569263 H        1 UNL1     0.0233
     97 H         7.754415   4.537469   -7.066972 H        1 UNL1     0.0280
     98 H         7.793303   4.69758   -8.801919 H        1 UNL1     0.0280
     99 H         6.70377   5.739485   -7.839067 H        1 UNL1     0.0280
     100 H         5.261853   4.501698   -10.848331 H        1 UNL1     0.2922
     101 H         3.523755   -3.046495   -2.816133 H        1 UNL1     0.0236
     102 H         4.265533   -3.356326   -4.434723 H        1 UNL1     0.0236
     103 H         2.818604   -4.174244   -3.931826 H        1 UNL1     0.0236
     104 H         0.402604   -2.788047   -1.837559 H        1 UNL1     0.2098
     105 H         0.230531   0.822315   -1.510444 H        1 UNL1     0.0234
     106 H         -0.79266   -0.633346   -1.351616 H        1 UNL1     0.0234
     107 H         -0.0   0.0   0.0 H        1 UNL1     0.0234
     108 H         3.719045   -0.646465   -1.592112 H        1 UNL1     0.2098
     109 H         1.253221   3.483817   -2.4308 H        1 UNL1     0.0234
     110 H         1.371059   1.704852   -2.245862 H        1 UNL1     0.0234
     111 H         0.018635   2.563839   -1.596297 H        1 UNL1     0.0234
     112 H         -1.278266   0.460736   3.78114 H        1 UNL1     0.0342
     113 H         0.337868   -0.19108   3.33227 H        1 UNL1     0.0342
     114 H         0.132457   1.528634   3.676304 H        1 UNL1     0.0342
     115 H         3.698125   0.098864   2.848607 H        1 UNL1     0.0234
     116 H         4.42915   1.171397   1.65025 H        1 UNL1     0.0234
     117 H         3.2857   1.748803   2.880197 H        1 UNL1     0.0234
     118 H         4.270839   4.81332   -3.52444 H        1 UNL1     0.0309
     119 H         4.228334   5.108238   -5.290588 H        1 UNL1     0.0309
     120 H         3.01136   4.137797   -4.490978 H        1 UNL1     0.0309
     121 H         6.252854   2.362938   0.751534 H        1 UNL1     0.0524
     122 H         5.884769   3.636868   -0.418284 H        1 UNL1     0.0524
     123 H         5.420879   3.847342   1.288833 H        1 UNL1     0.0524
@<TRIPOS>BOND
     1     1     2    1
     2     1    42    1
     3     2     3    2
     4     3     4    1
     5     4     5    2
     6     5     7    1
     7     6    75    1
     8     6    76    1
     9     6    77    1
    10     7     9   am
    11     9    10    1
    12    10    11    2
    13    10    43    1
    14    11    14    1
    15    11    15    1
    16    12    13   ar
    17    12    27   ar
    18    12    43    1
    19    13    14    1
    20    13    30   ar
    21    14    17    2
    22    15    16    1
    23    16    17    1
    24    16    18    1
    25    16    22    1
    26    18    19    1
    27    19    20    1
    28    20    21    1
    29    21    22    1
    30    23    24    1
    31    23    88    1
    32    23    89    1
    33    24    25    1
    34    24    26    1
    35    24    90    1
    36    25    91    1
    37    25    92    1
    38    25    93    1
    39    26    94    1
    40    26    95    1
    41    26    96    1
    42    27    28   ar
    43    28    29   ar
    44    29    30   ar
    45    29    31    1
    46    30    33    1
    47    31    32    1
    48    32    33    1
    49    32    35    1
    50    34    97    1
    51    34    98    1
    52    34    99    1
    53    35    61    1
    54    36    37    1
    55    36    60    1
    56    37    38    1
    57    38    39    1
    58    39    40    1
    59    40    41    1
    60    41    42    1
    61    45   100    1
    62    47   101    1
    63    47   102    1
    64    47   103    1
    65    48   104    1
    66    49   105    1
    67    49   106    1
    68    49   107    1
    69    50   108    1
    70    51    59    1
    71    52   109    1
    72    52   110    1
    73    52   111    1
    74    53    54    1
    75    54    55    2
    76    54    56    1
    77    56   112    1
    78    56   113    1
    79    56   114    1
    80    57   115    1
    81    57   116    1
    82    57   117    1
    83    58   118    1
    84    58   119    1
    85    58   120    1
    86    59   121    1
    87    59   122    1
    88    59   123    1
    89    60    61    2
    90     1    47    1
    91     1    62    1
    92     2    63    1
    93     3    64    1
    94     4    65    1
    95     5     6    1
    96     7     8    2
    97     9    78    1
    98    15    79    1
    99    18    80    1
   100    18    81    1
   101    19    82    1
   102    19    83    1
   103    20    23    1
   104    21    84    1
   105    21    85    1
   106    22    86    1
   107    22    87    1
   108    27    45    1
   109    28    34    1
   110    32    58    1
   111    33    46    2
   112    36    51    1
   113    36    66    1
   114    37    52    1
   115    37    67    1
   116    38    53    1
   117    38    68    1
   118    42    48    1
   119    42    72    1
   120    43    44    2
   121    60    73    1
   122    61    74    1
   123    39    69    1
   124    39    57    1
   125    40    70    1
   126    40    50    1
   127    41    71    1
   128    41    49    1
