@<TRIPOS>MOLECULE
*****
 123 128 0 0 0
SMALL
GASTEIGER

@<TRIPOS>ATOM
     1 C         2.50538   -3.698635   -2.021018 C.3        1 UNL1     0.0009
     2 C         3.465837   -5.205992   -1.528643 C.2        1 UNL1     -0.0787
     3 C         4.690949   -5.815924   -1.056277 C.2        1 UNL1     -0.0649
     4 C         4.952946   -7.435263   -0.637404 C.2        1 UNL1     -0.0542
     5 C         5.784838   -8.328534   0.081694 C.2        1 UNL1     0.0115
     6 C         7.128181   -8.450008   0.852405 C.3        1 UNL1     -0.0348
     7 C         5.230029   -9.792896   0.434993 C.2        1 UNL1     0.2441
     8 O         5.559591   -10.796201   -0.182497 O.2        1 UNL1     -0.2702
     9 N         4.546804   -9.884112   1.66016 N.am        1 UNL1     -0.2772
     10 C         3.21193   -9.598099   1.488033 C.2        1 UNL1     0.1049
     11 C         2.887647   -8.317884   1.477368 C.2        1 UNL1     0.0801
     12 C         1.232754   -10.15093   0.061647 C.ar        1 UNL1     0.0753
     13 C         1.046826   -8.73992   -0.090307 C.ar        1 UNL1     0.0305
     14 C         1.790565   -7.778444   0.720537 C.2        1 UNL1     0.0924
     15 N         3.615227   -7.23964   1.81581 N.pl3        1 UNL1     -0.3170
     16 C         2.743071   -6.095537   1.790794 C.3        1 UNL1     0.1275
     17 N         1.677293   -6.454808   0.78443 N.2        1 UNL1     -0.2557
     18 C         2.042658   -6.031217   3.144672 C.3        1 UNL1     0.0016
     19 C         3.099089   -5.991517   4.237361 C.3        1 UNL1     0.0026
     20 N         3.944254   -4.823965   4.028681 N.3        1 UNL1     -0.3018
     21 C         4.613305   -4.765336   2.727412 C.3        1 UNL1     0.0026
     22 C         3.533271   -4.801779   1.644778 C.3        1 UNL1     0.0016
     23 C         4.78627   -4.52603   5.170122 C.3        1 UNL1     0.0012
     24 C         6.054703   -3.781797   4.724084 C.3        1 UNL1     -0.0339
     25 C         7.267478   -4.724855   4.661824 C.3        1 UNL1     -0.0615
     26 C         5.81319   -3.093067   3.392129 C.3        1 UNL1     -0.0615
     27 C         0.435563   -11.062249   -0.626904 C.ar        1 UNL1     0.1347
     28 C         -0.601061   -10.683788   -1.461306 C.ar        1 UNL1     0.0342
     29 C         -0.733869   -9.289567   -1.633568 C.ar        1 UNL1     0.1435
     30 C         0.080753   -8.365208   -0.978455 C.ar        1 UNL1     0.0774
     31 O         -1.764746   -8.760285   -2.327945 O.3        1 UNL1     -0.4436
     32 C         -1.830875   -7.393599   -1.893584 C.3        1 UNL1     0.3143
     33 C         -0.442929   -7.074945   -1.375627 C.2        1 UNL1     0.2504
     34 C         -1.651546   -11.595521   -2.031678 C.3        1 UNL1     -0.0327
     35 O         -2.036922   -6.585737   -3.058983 O.2        1 UNL1     -0.4528
     36 C         -4.001696   -3.555477   -1.890534 C.3        1 UNL1     0.0854
     37 C         -3.636475   -2.500084   -0.776854 C.3        1 UNL1     0.0236
     38 C         -3.643224   -0.972559   -1.26508 C.3        1 UNL1     0.1131
     39 C         -2.84193   -0.560277   -2.565165 C.3        1 UNL1     0.0200
     40 C         -1.305137   -1.150894   -2.833264 C.3        1 UNL1     0.0661
     41 C         -0.025977   -1.134551   -1.71922 C.3        1 UNL1     0.0091
     42 C         1.358975   -2.313593   -1.480116 C.3        1 UNL1     0.0661
     43 C         2.243612   -10.612338   1.045278 C.2        1 UNL1     0.2131
     44 O         2.234068   -11.720026   1.55092 O.2        1 UNL1     -0.2851
     45 O         0.711879   -12.417461   -0.458121 O.3        1 UNL1     -0.5056
     46 O         0.113686   -6.001027   -1.323347 O.2        1 UNL1     -0.2836
     47 C         2.959212   -3.203374   -3.420566 C.3        1 UNL1     -0.0566
     48 O         2.397362   -1.256974   -1.413595 O.3        1 UNL1     -0.3909
     49 C         -0.577873   -0.818052   -0.347093 C.3        1 UNL1     -0.0577
     50 O         -1.356284   -2.400403   -3.491925 O.3        1 UNL1     -0.3910
     51 O         -4.116032   -3.052194   -3.202427 O.3        1 UNL1     -0.3753
     52 C         -2.561463   -3.050569   0.216255 C.3        1 UNL1     -0.0564
     53 O         -3.642889   0.018228   -0.137841 O.3        1 UNL1     -0.4608
     54 C         -4.74804   0.427036   0.561765 C.2        1 UNL1     0.3042
     55 O         -5.817399   -0.169126   0.683835 O.2        1 UNL1     -0.2512
     56 C         -4.554187   1.729379   1.284978 C.3        1 UNL1     0.0332
     57 C         -3.870118   -0.574616   -3.790236 C.3        1 UNL1     -0.0567
     58 C         -2.825356   -7.358485   -0.709817 C.3        1 UNL1     0.0210
     59 C         -5.23366   -3.54666   -3.93882 C.3        1 UNL1     0.0372
     60 C         -3.096273   -4.734658   -1.960554 C.2        1 UNL1     -0.0208
     61 C         -2.543053   -5.33845   -3.01323 C.2        1 UNL1     0.0882
     62 H         1.627124   -4.334923   -2.183854 H        1 UNL1     0.0365
     63 H         2.740425   -5.991304   -1.7512 H        1 UNL1     0.0576
     64 H         5.553843   -5.214018   -0.762626 H        1 UNL1     0.0615
     65 H         4.079278   -7.953659   -1.041697 H        1 UNL1     0.0622
     66 H         -4.983377   -3.946861   -1.588595 H        1 UNL1     0.0645
     67 H         -4.505482   -2.516832   -0.096336 H        1 UNL1     0.0362
     68 H         -4.705976   -0.869594   -1.532436 H        1 UNL1     0.0741
     69 H         -2.685767   0.510176   -2.552914 H        1 UNL1     0.0359
     70 H         -0.961448   -0.442179   -3.610863 H        1 UNL1     0.0600
     71 H         0.452206   -0.172255   -1.988078 H        1 UNL1     0.0348
     72 H         0.97741   -2.495824   -2.495259 H        1 UNL1     0.0602
     73 H         -3.014145   -5.169719   -0.995554 H        1 UNL1     0.0628
     74 H         -2.532247   -4.928758   -4.023811 H        1 UNL1     0.1022
     75 H         6.980153   -8.997682   1.814266 H        1 UNL1     0.0279
     76 H         7.912864   -9.029506   0.371235 H        1 UNL1     0.0279
     77 H         7.502132   -7.479718   1.210731 H        1 UNL1     0.0279
     78 H         4.924492   -9.201578   2.314054 H        1 UNL1     0.1553
     79 H         4.441462   -7.281149   2.383742 H        1 UNL1     0.1484
     80 H         1.4024   -5.141288   3.174057 H        1 UNL1     0.0317
     81 H         1.384848   -6.895428   3.286365 H        1 UNL1     0.0317
     82 H         3.697246   -6.914365   4.259073 H        1 UNL1     0.0428
     83 H         2.577981   -5.947694   5.194218 H        1 UNL1     0.0428
     84 H         5.177214   -3.841455   2.565363 H        1 UNL1     0.0428
     85 H         5.364923   -5.559334   2.618072 H        1 UNL1     0.0428
     86 H         4.046281   -4.623711   0.717902 H        1 UNL1     0.0317
     87 H         2.875345   -3.929591   1.742331 H        1 UNL1     0.0317
     88 H         4.221099   -3.87632   5.851116 H        1 UNL1     0.0429
     89 H         5.037374   -5.43677   5.728937 H        1 UNL1     0.0429
     90 H         6.271759   -2.98066   5.440519 H        1 UNL1     0.0308
     91 H         7.802796   -4.622255   3.713136 H        1 UNL1     0.0233
     92 H         7.956083   -4.523511   5.485774 H        1 UNL1     0.0233
     93 H         6.9814   -5.779674   4.75321 H        1 UNL1     0.0233
     94 H         5.291186   -2.142697   3.547514 H        1 UNL1     0.0233
     95 H         6.767985   -2.877445   2.904446 H        1 UNL1     0.0233
     96 H         5.208671   -3.714396   2.725439 H        1 UNL1     0.0233
     97 H         -1.342365   -12.032551   -2.976475 H        1 UNL1     0.0280
     98 H         -1.870797   -12.441195   -1.36683 H        1 UNL1     0.0280
     99 H         -2.580723   -11.027267   -2.201424 H        1 UNL1     0.0280
     100 H         0.798781   -12.902163   -1.260078 H        1 UNL1     0.2922
     101 H         3.591544   -3.956709   -3.889925 H        1 UNL1     0.0236
     102 H         3.43877   -2.225455   -3.394466 H        1 UNL1     0.0236
     103 H         2.109091   -3.081097   -4.112329 H        1 UNL1     0.0236
     104 H         2.835276   -1.328188   -0.542889 H        1 UNL1     0.2098
     105 H         -1.6216   -0.514048   -0.341988 H        1 UNL1     0.0234
     106 H         -0.405739   -1.590553   0.402266 H        1 UNL1     0.0234
     107 H         0.0   0.0   0.0 H        1 UNL1     0.0234
     108 H         -1.755668   -3.039585   -2.870872 H        1 UNL1     0.2098
     109 H         -1.874953   -3.760694   -0.265551 H        1 UNL1     0.0234
     110 H         -1.984843   -2.259768   0.708074 H        1 UNL1     0.0234
     111 H         -3.022382   -3.600294   1.047702 H        1 UNL1     0.0234
     112 H         -4.565925   1.560107   2.365976 H        1 UNL1     0.0342
     113 H         -3.64008   2.235789   0.978712 H        1 UNL1     0.0342
     114 H         -5.398292   2.387914   1.038032 H        1 UNL1     0.0342
     115 H         -3.649744   0.218761   -4.517681 H        1 UNL1     0.0234
     116 H         -3.898827   -1.520563   -4.33467 H        1 UNL1     0.0234
     117 H         -4.903352   -0.316988   -3.500413 H        1 UNL1     0.0234
     118 H         -2.592379   -6.548611   0.003508 H        1 UNL1     0.0309
     119 H         -3.868724   -7.266505   -1.027818 H        1 UNL1     0.0309
     120 H         -2.775216   -8.261592   -0.091763 H        1 UNL1     0.0309
     121 H         -5.53594   -4.490214   -3.485292 H        1 UNL1     0.0524
     122 H         -6.098997   -2.864581   -3.894118 H        1 UNL1     0.0524
     123 H         -4.959944   -3.701284   -4.978659 H        1 UNL1     0.0524
@<TRIPOS>BOND
     1     1     2    1
     2     1    42    1
     3     2     3    2
     4     3     4    1
     5     4     5    2
     6     5     7    1
     7     6    75    1
     8     6    76    1
     9     6    77    1
    10     7     9   am
    11     9    10    1
    12    10    11    2
    13    10    43    1
    14    11    14    1
    15    11    15    1
    16    12    13   ar
    17    12    27   ar
    18    12    43    1
    19    13    14    1
    20    13    30   ar
    21    14    17    2
    22    15    16    1
    23    16    17    1
    24    16    18    1
    25    16    22    1
    26    18    19    1
    27    19    20    1
    28    20    21    1
    29    21    22    1
    30    23    24    1
    31    23    88    1
    32    23    89    1
    33    24    25    1
    34    24    26    1
    35    24    90    1
    36    25    91    1
    37    25    92    1
    38    25    93    1
    39    26    94    1
    40    26    95    1
    41    26    96    1
    42    27    28   ar
    43    28    29   ar
    44    29    30   ar
    45    29    31    1
    46    30    33    1
    47    31    32    1
    48    32    33    1
    49    32    35    1
    50    34    97    1
    51    34    98    1
    52    34    99    1
    53    35    61    1
    54    36    37    1
    55    36    60    1
    56    37    38    1
    57    38    39    1
    58    39    40    1
    59    40    41    1
    60    41    42    1
    61    45   100    1
    62    47   101    1
    63    47   102    1
    64    47   103    1
    65    48   104    1
    66    49   105    1
    67    49   106    1
    68    49   107    1
    69    50   108    1
    70    51    59    1
    71    52   109    1
    72    52   110    1
    73    52   111    1
    74    53    54    1
    75    54    55    2
    76    54    56    1
    77    56   112    1
    78    56   113    1
    79    56   114    1
    80    57   115    1
    81    57   116    1
    82    57   117    1
    83    58   118    1
    84    58   119    1
    85    58   120    1
    86    59   121    1
    87    59   122    1
    88    59   123    1
    89    60    61    2
    90     1    47    1
    91     1    62    1
    92     2    63    1
    93     3    64    1
    94     4    65    1
    95     5     6    1
    96     7     8    2
    97     9    78    1
    98    15    79    1
    99    18    80    1
   100    18    81    1
   101    19    82    1
   102    19    83    1
   103    20    23    1
   104    21    84    1
   105    21    85    1
   106    22    86    1
   107    22    87    1
   108    27    45    1
   109    28    34    1
   110    32    58    1
   111    33    46    2
   112    36    51    1
   113    36    66    1
   114    37    52    1
   115    37    67    1
   116    38    53    1
   117    38    68    1
   118    42    48    1
   119    42    72    1
   120    43    44    2
   121    60    73    1
   122    61    74    1
   123    39    69    1
   124    39    57    1
   125    40    70    1
   126    40    50    1
   127    41    71    1
   128    41    49    1
