@<TRIPOS>MOLECULE
*****
 123 128 0 0 0
SMALL
GASTEIGER

@<TRIPOS>ATOM
     1 C         5.166906   1.749899   0.490113 C.3        1 UNL1     0.0009
     2 C         6.603122   2.556597   -0.360509 C.2        1 UNL1     -0.0787
     3 C         7.884808   2.45891   -1.026681 C.2        1 UNL1     -0.0649
     4 C         8.761712   3.694461   -1.782201 C.2        1 UNL1     -0.0542
     5 C         9.781362   3.987619   -2.721056 C.2        1 UNL1     0.0115
     6 C         10.90943   3.362694   -3.587229 C.3        1 UNL1     -0.0348
     7 C         9.876146   5.471071   -3.327171 C.2        1 UNL1     0.2441
     8 O         10.699954   6.29281   -2.949532 O.2        1 UNL1     -0.2702
     9 N         9.125493   5.67819   -4.497545 N.am        1 UNL1     -0.2772
     10 C         7.842787   6.064472   -4.183263 C.2        1 UNL1     0.1049
     11 C         6.997331   5.092772   -3.89133 C.2        1 UNL1     0.0801
     12 C         6.544466   7.670409   -2.771645 C.ar        1 UNL1     0.0753
     13 C         5.785826   6.542184   -2.32423 C.ar        1 UNL1     0.0305
     14 C         5.902863   5.236694   -2.970025 C.2        1 UNL1     0.0924
     15 N         7.12022   3.763869   -4.050837 N.pl3        1 UNL1     -0.3170
     16 C         5.850607   3.164304   -3.736418 C.3        1 UNL1     0.1275
     17 N         5.214296   4.119106   -2.756018 N.2        1 UNL1     -0.2557
     18 C         4.997334   3.223527   -4.999794 C.3        1 UNL1     0.0016
     19 C         5.752012   2.539938   -6.128844 C.3        1 UNL1     0.0026
     20 N         6.022612   1.161792   -5.743464 N.3        1 UNL1     -0.3018
     21 C         6.786411   1.00123   -4.504432 C.3        1 UNL1     0.0026
     22 C         6.007864   1.691244   -3.382987 C.3        1 UNL1     0.0016
     23 C         6.466955   0.342676   -6.853533 C.3        1 UNL1     0.0012
     24 C         5.31125   0.0932   -7.835299 C.3        1 UNL1     -0.0339
     25 C         5.346337   1.085689   -9.009093 C.3        1 UNL1     -0.0615
     26 C         5.340541   -1.346154   -8.319224 C.3        1 UNL1     -0.0615
     27 C         6.339676   8.937901   -2.231604 C.ar        1 UNL1     0.1347
     28 C         5.380866   9.206947   -1.271215 C.ar        1 UNL1     0.0342
     29 C         4.679728   8.072197   -0.810874 C.ar        1 UNL1     0.1435
     30 C         4.899315   6.790366   -1.316749 C.ar        1 UNL1     0.0774
     31 O         3.638989   8.185273   0.042989 O.3        1 UNL1     -0.4436
     32 C         2.917562   6.952319   -0.099281 C.3        1 UNL1     0.3143
     33 C         3.930923   5.959607   -0.632042 C.2        1 UNL1     0.2504
     34 C         4.933843   10.572819   -0.830009 C.3        1 UNL1     -0.0327
     35 O         2.557464   6.515164   1.216956 O.2        1 UNL1     -0.4528
     36 C         -0.685247   4.582307   0.820756 C.3        1 UNL1     0.0854
     37 C         -0.990547   3.321899   -0.076844 C.3        1 UNL1     0.0236
     38 C         -1.590537   2.060492   0.710943 C.3        1 UNL1     0.1131
     39 C         -0.864218   1.529372   2.011959 C.3        1 UNL1     0.0200
     40 C         0.797022   1.384216   2.052534 C.3        1 UNL1     0.0661
     41 C         1.756187   0.615939   0.88319 C.3        1 UNL1     0.0091
     42 C         3.463499   0.979062   0.318717 C.3        1 UNL1     0.0661
     43 C         7.494185   7.463244   -3.892974 C.2        1 UNL1     0.2131
     44 O         7.893612   8.361615   -4.611392 O.2        1 UNL1     -0.2851
     45 O         7.151541   9.973329   -2.690082 O.3        1 UNL1     -0.5056
     46 O         3.947245   4.756041   -0.501599 O.2        1 UNL1     -0.2836
     47 C         5.563852   1.320125   1.928066 C.3        1 UNL1     -0.0566
     48 O         3.912428   -0.431957   0.399968 O.3        1 UNL1     -0.3909
     49 C         0.92164   0.383486   -0.356564 C.3        1 UNL1     -0.0577
     50 O         1.397061   2.602115   2.445468 O.3        1 UNL1     -0.3910
     51 O         -0.808823   4.392226   2.212169 O.3        1 UNL1     -0.3753
     52 C         0.053559   3.16199   -1.229763 C.3        1 UNL1     -0.0564
     53 O         -2.193194   1.021607   -0.188974 O.3        1 UNL1     -0.4608
     54 C         -2.427177   -0.285292   0.150431 C.2        1 UNL1     0.3042
     55 O         -1.857987   -1.284169   -0.287871 O.2        1 UNL1     -0.2512
     56 C         -3.466795   -0.451474   1.222015 C.3        1 UNL1     0.0332
     57 C         -1.584981   2.197854   3.273627 C.3        1 UNL1     -0.0567
     58 C         1.841943   7.197444   -1.183018 C.3        1 UNL1     0.0210
     59 C         -1.122052   5.570958   2.952671 C.3        1 UNL1     0.0372
     60 C         0.643521   5.21177   0.589859 C.2        1 UNL1     -0.0208
     61 C         1.556646   5.646988   1.459072 C.2        1 UNL1     0.0882
     62 H         4.690781   2.733935   0.577804 H        1 UNL1     0.0365
     63 H         6.33666   3.610305   -0.254834 H        1 UNL1     0.0576
     64 H         8.342617   1.492228   -1.248141 H        1 UNL1     0.0615
     65 H         8.27453   4.609649   -1.434974 H        1 UNL1     0.0622
     66 H         -1.43018   5.32874   0.510984 H        1 UNL1     0.0645
     67 H         -1.856376   3.631221   -0.687761 H        1 UNL1     0.0362
     68 H         -2.537591   2.49705   1.063118 H        1 UNL1     0.0741
     69 H         -1.195435   0.518144   2.207206 H        1 UNL1     0.0359
     70 H         0.909255   0.723679   2.93353 H        1 UNL1     0.0600
     71 H         1.800158   -0.405329   1.309847 H        1 UNL1     0.0348
     72 H         3.357836   1.466984   1.298555 H        1 UNL1     0.0602
     73 H         0.761015   5.40932   -0.446682 H        1 UNL1     0.0628
     74 H         1.539517   5.436039   2.528859 H        1 UNL1     0.1022
     75 H         10.935606   2.253996   -3.456319 H        1 UNL1     0.0279
     76 H         10.808841   3.469009   -4.665027 H        1 UNL1     0.0279
     77 H         11.915347   3.645355   -3.243815 H        1 UNL1     0.0279
     78 H         9.063518   4.808364   -5.022558 H        1 UNL1     0.1553
     79 H         7.785379   3.336197   -4.668568 H        1 UNL1     0.1484
     80 H         4.036235   2.732315   -4.805457 H        1 UNL1     0.0317
     81 H         4.770387   4.260297   -5.270448 H        1 UNL1     0.0317
     82 H         6.682464   3.071524   -6.377012 H        1 UNL1     0.0428
     83 H         5.12654   2.595165   -7.020351 H        1 UNL1     0.0428
     84 H         6.907084   -0.041774   -4.195576 H        1 UNL1     0.0428
     85 H         7.816381   1.369533   -4.608509 H        1 UNL1     0.0428
     86 H         6.524659   1.440767   -2.475148 H        1 UNL1     0.0317
     87 H         5.028575   1.213343   -3.257684 H        1 UNL1     0.0317
     88 H         7.262709   0.884797   -7.380956 H        1 UNL1     0.0429
     89 H         6.899895   -0.603085   -6.503001 H        1 UNL1     0.0429
     90 H         4.358372   0.211913   -7.306014 H        1 UNL1     0.0308
     91 H         6.299335   1.035276   -9.544215 H        1 UNL1     0.0233
     92 H         4.531252   0.885703   -9.708558 H        1 UNL1     0.0233
     93 H         5.220074   2.124684   -8.6814 H        1 UNL1     0.0233
     94 H         4.645796   -1.477569   -9.155821 H        1 UNL1     0.0233
     95 H         6.343987   -1.601727   -8.670992 H        1 UNL1     0.0233
     96 H         5.058049   -2.040647   -7.52308 H        1 UNL1     0.0233
     97 H         4.134476   10.522796   -0.096702 H        1 UNL1     0.0280
     98 H         5.744203   11.139449   -0.353035 H        1 UNL1     0.0280
     99 H         4.568539   11.140867   -1.701198 H        1 UNL1     0.0280
     100 H         6.684234   10.724435   -3.011152 H        1 UNL1     0.2922
     101 H         4.698173   0.897566   2.437672 H        1 UNL1     0.0236
     102 H         6.025736   2.122053   2.503008 H        1 UNL1     0.0236
     103 H         6.311117   0.509085   1.926477 H        1 UNL1     0.0236
     104 H         4.331978   -0.558162   1.273479 H        1 UNL1     0.2098
     105 H         0.708581   1.282412   -0.929581 H        1 UNL1     0.0234
     106 H         1.29099   -0.404281   -1.013018 H        1 UNL1     0.0234
     107 H         0.0   -0.0   0.0 H        1 UNL1     0.0234
     108 H         1.213137   3.255838   1.743622 H        1 UNL1     0.2098
     109 H         1.079999   3.061054   -0.85036 H        1 UNL1     0.0234
     110 H         -0.172251   2.327393   -1.902222 H        1 UNL1     0.0234
     111 H         0.065525   4.039744   -1.889573 H        1 UNL1     0.0234
     112 H         -3.589852   -1.512442   1.459815 H        1 UNL1     0.0342
     113 H         -3.229711   0.124231   2.115435 H        1 UNL1     0.0342
     114 H         -4.424434   -0.080608   0.831438 H        1 UNL1     0.0342
     115 H         -2.654532   1.949312   3.312039 H        1 UNL1     0.0234
     116 H         -1.148124   1.917956   4.234284 H        1 UNL1     0.0234
     117 H         -1.623861   3.299713   3.22529 H        1 UNL1     0.0234
     118 H         0.940272   7.68262   -0.769979 H        1 UNL1     0.0309
     119 H         2.21045   7.787028   -2.028474 H        1 UNL1     0.0309
     120 H         1.454553   6.265535   -1.609143 H        1 UNL1     0.0309
     121 H         -0.301219   6.274356   2.815477 H        1 UNL1     0.0524
     122 H         -2.04209   6.05987   2.591381 H        1 UNL1     0.0524
     123 H         -1.239601   5.332924   4.006054 H        1 UNL1     0.0524
@<TRIPOS>BOND
     1     1     2    1
     2     1    42    1
     3     2     3    2
     4     3     4    1
     5     4     5    2
     6     5     7    1
     7     6    75    1
     8     6    76    1
     9     6    77    1
    10     7     9   am
    11     9    10    1
    12    10    11    2
    13    10    43    1
    14    11    14    1
    15    11    15    1
    16    12    13   ar
    17    12    27   ar
    18    12    43    1
    19    13    14    1
    20    13    30   ar
    21    14    17    2
    22    15    16    1
    23    16    17    1
    24    16    18    1
    25    16    22    1
    26    18    19    1
    27    19    20    1
    28    20    21    1
    29    21    22    1
    30    23    24    1
    31    23    88    1
    32    23    89    1
    33    24    25    1
    34    24    26    1
    35    24    90    1
    36    25    91    1
    37    25    92    1
    38    25    93    1
    39    26    94    1
    40    26    95    1
    41    26    96    1
    42    27    28   ar
    43    28    29   ar
    44    29    30   ar
    45    29    31    1
    46    30    33    1
    47    31    32    1
    48    32    33    1
    49    32    35    1
    50    34    97    1
    51    34    98    1
    52    34    99    1
    53    35    61    1
    54    36    37    1
    55    36    60    1
    56    37    38    1
    57    38    39    1
    58    39    40    1
    59    40    41    1
    60    41    42    1
    61    45   100    1
    62    47   101    1
    63    47   102    1
    64    47   103    1
    65    48   104    1
    66    49   105    1
    67    49   106    1
    68    49   107    1
    69    50   108    1
    70    51    59    1
    71    52   109    1
    72    52   110    1
    73    52   111    1
    74    53    54    1
    75    54    55    2
    76    54    56    1
    77    56   112    1
    78    56   113    1
    79    56   114    1
    80    57   115    1
    81    57   116    1
    82    57   117    1
    83    58   118    1
    84    58   119    1
    85    58   120    1
    86    59   121    1
    87    59   122    1
    88    59   123    1
    89    60    61    2
    90     1    47    1
    91     1    62    1
    92     2    63    1
    93     3    64    1
    94     4    65    1
    95     5     6    1
    96     7     8    2
    97     9    78    1
    98    15    79    1
    99    18    80    1
   100    18    81    1
   101    19    82    1
   102    19    83    1
   103    20    23    1
   104    21    84    1
   105    21    85    1
   106    22    86    1
   107    22    87    1
   108    27    45    1
   109    28    34    1
   110    32    58    1
   111    33    46    2
   112    36    51    1
   113    36    66    1
   114    37    52    1
   115    37    67    1
   116    38    53    1
   117    38    68    1
   118    42    48    1
   119    42    72    1
   120    43    44    2
   121    60    73    1
   122    61    74    1
   123    39    69    1
   124    39    57    1
   125    40    70    1
   126    40    50    1
   127    41    71    1
   128    41    49    1
