@<TRIPOS>MOLECULE
*****
 123 128 0 0 0
SMALL
GASTEIGER

@<TRIPOS>ATOM
     1 C         -0.630643   4.077516   -0.410998 C.3        1 UNL1     0.0009
     2 C         -2.245747   4.941766   -0.696566 C.2        1 UNL1     -0.0787
     3 C         -3.187929   5.579606   -1.591831 C.2        1 UNL1     -0.0649
     4 C         -4.74346   6.144688   -1.234951 C.2        1 UNL1     -0.0542
     5 C         -5.999342   6.509959   -1.779391 C.2        1 UNL1     0.0115
     6 C         -6.759913   6.794876   -3.103656 C.3        1 UNL1     -0.0348
     7 C         -7.274786   6.586263   -0.807584 C.2        1 UNL1     0.2441
     8 O         -7.728608   7.641521   -0.386867 O.2        1 UNL1     -0.2702
     9 N         -7.992565   5.384076   -0.682326 N.am        1 UNL1     -0.2772
     10 C         -7.469731   4.616153   0.332692 C.2        1 UNL1     0.1049
     11 C         -6.418124   3.879707   0.022866 C.2        1 UNL1     0.0801
     12 C         -6.742249   4.717847   2.723876 C.ar        1 UNL1     0.0753
     13 C         -5.522833   4.1016   2.297411 C.ar        1 UNL1     0.0305
     14 C         -5.376256   3.543504   0.95499 C.2        1 UNL1     0.0924
     15 N         -5.890338   3.589784   -1.178764 N.pl3        1 UNL1     -0.3170
     16 C         -4.856008   2.609632   -0.979466 C.3        1 UNL1     0.1275
     17 N         -4.367071   2.856866   0.426784 N.2        1 UNL1     -0.2557
     18 C         -5.528487   1.2403   -0.959393 C.3        1 UNL1     0.0016
     19 C         -6.317713   1.067152   -2.247311 C.3        1 UNL1     0.0026
     20 N         -5.404133   1.185742   -3.37529 N.3        1 UNL1     -0.3018
     21 C         -4.663308   2.446944   -3.445406 C.3        1 UNL1     0.0026
     22 C         -3.874221   2.598195   -2.14373 C.3        1 UNL1     0.0016
     23 C         -5.990481   0.743518   -4.624801 C.3        1 UNL1     0.0012
     24 C         -7.065048   -0.324545   -4.367304 C.3        1 UNL1     -0.0339
     25 C         -7.106062   -1.365152   -5.498458 C.3        1 UNL1     -0.0615
     26 C         -6.83687   -0.977446   -3.015108 C.3        1 UNL1     -0.0615
     27 C         -6.916442   5.138513   4.04024 C.ar        1 UNL1     0.1347
     28 C         -5.961599   4.961009   5.025541 C.ar        1 UNL1     0.0342
     29 C         -4.750656   4.396557   4.571479 C.ar        1 UNL1     0.1435
     30 C         -4.548472   4.003402   3.247934 C.ar        1 UNL1     0.0774
     31 O         -3.764433   4.059206   5.430877 O.3        1 UNL1     -0.4436
     32 C         -2.954321   3.123223   4.703877 C.3        1 UNL1     0.3143
     33 C         -3.22439   3.417281   3.242096 C.2        1 UNL1     0.2504
     34 C         -6.171114   5.154976   6.501543 C.3        1 UNL1     -0.0327
     35 O         -1.584508   3.463047   4.951632 O.2        1 UNL1     -0.4528
     36 C         0.352229   0.206081   4.729576 C.3        1 UNL1     0.0854
     37 C         0.442783   -0.819775   3.53503 C.3        1 UNL1     0.0236
     38 C         1.931722   -1.15074   3.039783 C.3        1 UNL1     0.1131
     39 C         2.928118   0.030907   2.703369 C.3        1 UNL1     0.0200
     40 C         2.406629   1.353096   1.830269 C.3        1 UNL1     0.0661
     41 C         1.553643   1.302567   0.364843 C.3        1 UNL1     0.0091
     42 C         0.286706   2.442179   -0.314537 C.3        1 UNL1     0.0661
     43 C         -7.848899   4.813093   1.739745 C.2        1 UNL1     0.2131
     44 O         -9.018872   4.939467   2.052684 O.2        1 UNL1     -0.2851
     45 O         -8.115834   5.770369   4.362197 O.3        1 UNL1     -0.5056
     46 O         -2.500629   3.230455   2.289667 O.2        1 UNL1     -0.2836
     47 C         0.541798   5.093546   -0.466187 C.3        1 UNL1     -0.0566
     48 O         0.917912   2.528297   -1.653671 O.3        1 UNL1     -0.3909
     49 C         1.044876   -0.104609   0.144603 C.3        1 UNL1     -0.0577
     50 O         1.841646   2.326844   2.684863 O.3        1 UNL1     -0.3910
     51 O         1.560533   0.833021   5.096152 O.3        1 UNL1     -0.3753
     52 C         -0.748437   -0.655595   2.535536 C.3        1 UNL1     -0.0564
     53 O         2.016981   -2.366337   2.16378 O.3        1 UNL1     -0.4608
     54 C         3.032714   -2.644977   1.287096 C.2        1 UNL1     0.3042
     55 O         3.546184   -3.740346   1.062699 O.2        1 UNL1     -0.2512
     56 C         3.492611   -1.450751   0.500309 C.3        1 UNL1     0.0332
     57 C         3.813646   0.301144   4.007588 C.3        1 UNL1     -0.0567
     58 C         -3.50294   1.716836   5.039469 C.3        1 UNL1     0.0210
     59 C         1.437488   1.819551   6.119619 C.3        1 UNL1     0.0372
     60 C         -0.656391   1.286603   4.555455 C.2        1 UNL1     -0.0208
     61 C         -0.566367   2.597842   4.781938 C.2        1 UNL1     0.0882
     62 H         -0.898979   3.966456   0.646534 H        1 UNL1     0.0365
     63 H         -2.616168   5.024574   0.327349 H        1 UNL1     0.0576
     64 H         -3.023852   5.605963   -2.67141 H        1 UNL1     0.0615
     65 H         -4.773462   6.152643   -0.14201 H        1 UNL1     0.0622
     66 H         0.006671   -0.39398   5.583135 H        1 UNL1     0.0645
     67 H         0.142054   -1.782045   3.984651 H        1 UNL1     0.0362
     68 H         2.330162   -1.617112   3.953711 H        1 UNL1     0.0741
     69 H         3.732084   -0.355411   2.091156 H        1 UNL1     0.0359
     70 H         3.38255   1.780761   1.530701 H        1 UNL1     0.0600
     71 H         2.39755   1.342837   -0.351507 H        1 UNL1     0.0348
     72 H         0.818991   3.009247   0.462909 H        1 UNL1     0.0602
     73 H         -1.59545   0.852608   4.316574 H        1 UNL1     0.0628
     74 H         0.367115   3.127691   4.974573 H        1 UNL1     0.1022
     75 H         -6.456114   7.783262   -3.525359 H        1 UNL1     0.0279
     76 H         -6.563857   6.116844   -3.931245 H        1 UNL1     0.0279
     77 H         -7.838404   6.946803   -2.950431 H        1 UNL1     0.0279
     78 H         -7.914259   4.847604   -1.543803 H        1 UNL1     0.1553
     79 H         -6.38947   3.68527   -2.044028 H        1 UNL1     0.1484
     80 H         -4.759279   0.465744   -0.853809 H        1 UNL1     0.0317
     81 H         -6.19222   1.142982   -0.093577 H        1 UNL1     0.0317
     82 H         -7.137559   1.796498   -2.323589 H        1 UNL1     0.0428
     83 H         -6.790452   0.085178   -2.211321 H        1 UNL1     0.0428
     84 H         -3.926946   2.47872   -4.254464 H        1 UNL1     0.0428
     85 H         -5.325306   3.298854   -3.653553 H        1 UNL1     0.0428
     86 H         -3.245638   3.457892   -2.284415 H        1 UNL1     0.0317
     87 H         -3.157794   1.773901   -2.041911 H        1 UNL1     0.0317
     88 H         -6.465963   1.609186   -5.104207 H        1 UNL1     0.0429
     89 H         -5.22278   0.374067   -5.316837 H        1 UNL1     0.0429
     90 H         -8.046091   0.160974   -4.303753 H        1 UNL1     0.0308
     91 H         -6.10015   -1.704013   -5.763817 H        1 UNL1     0.0233
     92 H         -7.710143   -2.227885   -5.207961 H        1 UNL1     0.0233
     93 H         -7.560124   -0.968466   -6.414593 H        1 UNL1     0.0233
     94 H         -7.31967   -1.96018   -2.983907 H        1 UNL1     0.0233
     95 H         -5.766172   -1.122341   -2.846072 H        1 UNL1     0.0233
     96 H         -7.242914   -0.367026   -2.203637 H        1 UNL1     0.0233
     97 H         -5.511465   5.914552   6.910366 H        1 UNL1     0.0280
     98 H         -7.191554   5.486037   6.73469 H        1 UNL1     0.0280
     99 H         -5.976028   4.20728   7.029661 H        1 UNL1     0.0280
     100 H         -8.456585   5.553789   5.212258 H        1 UNL1     0.2922
     101 H         1.480232   4.563619   -0.627979 H        1 UNL1     0.0236
     102 H         0.585343   5.745587   0.405552 H        1 UNL1     0.0236
     103 H         0.45567   5.779   -1.325796 H        1 UNL1     0.0236
     104 H         1.557751   3.266587   -1.63123 H        1 UNL1     0.2098
     105 H         1.454493   -0.598021   -0.733219 H        1 UNL1     0.0234
     106 H         1.119858   -0.757268   1.014281 H        1 UNL1     0.0234
     107 H         -0.0   0.0   0.0 H        1 UNL1     0.0234
     108 H         1.297695   2.918887   2.130452 H        1 UNL1     0.2098
     109 H         -0.787369   0.351122   2.096541 H        1 UNL1     0.0234
     110 H         -0.745641   -1.404159   1.73592 H        1 UNL1     0.0234
     111 H         -1.71681   -0.800731   3.032665 H        1 UNL1     0.0234
     112 H         4.177722   -0.848362   1.10454 H        1 UNL1     0.0342
     113 H         3.952455   -1.735381   -0.444875 H        1 UNL1     0.0342
     114 H         2.614035   -0.832441   0.270178 H        1 UNL1     0.0342
     115 H         4.284844   -0.619217   4.379202 H        1 UNL1     0.0234
     116 H         4.604773   1.039347   3.861905 H        1 UNL1     0.0234
     117 H         3.220384   0.60671   4.886571 H        1 UNL1     0.0234
     118 H         -3.367081   1.462249   6.105177 H        1 UNL1     0.0309
     119 H         -4.557299   1.592142   4.773048 H        1 UNL1     0.0309
     120 H         -2.962127   0.919303   4.518346 H        1 UNL1     0.0309
     121 H         2.442949   2.139455   6.39177 H        1 UNL1     0.0524
     122 H         0.886707   2.711355   5.777038 H        1 UNL1     0.0524
     123 H         0.929849   1.402367   6.984694 H        1 UNL1     0.0524
@<TRIPOS>BOND
     1     1     2    1
     2     1    42    1
     3     2     3    2
     4     3     4    1
     5     4     5    2
     6     5     7    1
     7     6    75    1
     8     6    76    1
     9     6    77    1
    10     7     9   am
    11     9    10    1
    12    10    11    2
    13    10    43    1
    14    11    14    1
    15    11    15    1
    16    12    13   ar
    17    12    27   ar
    18    12    43    1
    19    13    14    1
    20    13    30   ar
    21    14    17    2
    22    15    16    1
    23    16    17    1
    24    16    18    1
    25    16    22    1
    26    18    19    1
    27    19    20    1
    28    20    21    1
    29    21    22    1
    30    23    24    1
    31    23    88    1
    32    23    89    1
    33    24    25    1
    34    24    26    1
    35    24    90    1
    36    25    91    1
    37    25    92    1
    38    25    93    1
    39    26    94    1
    40    26    95    1
    41    26    96    1
    42    27    28   ar
    43    28    29   ar
    44    29    30   ar
    45    29    31    1
    46    30    33    1
    47    31    32    1
    48    32    33    1
    49    32    35    1
    50    34    97    1
    51    34    98    1
    52    34    99    1
    53    35    61    1
    54    36    37    1
    55    36    60    1
    56    37    38    1
    57    38    39    1
    58    39    40    1
    59    40    41    1
    60    41    42    1
    61    45   100    1
    62    47   101    1
    63    47   102    1
    64    47   103    1
    65    48   104    1
    66    49   105    1
    67    49   106    1
    68    49   107    1
    69    50   108    1
    70    51    59    1
    71    52   109    1
    72    52   110    1
    73    52   111    1
    74    53    54    1
    75    54    55    2
    76    54    56    1
    77    56   112    1
    78    56   113    1
    79    56   114    1
    80    57   115    1
    81    57   116    1
    82    57   117    1
    83    58   118    1
    84    58   119    1
    85    58   120    1
    86    59   121    1
    87    59   122    1
    88    59   123    1
    89    60    61    2
    90     1    47    1
    91     1    62    1
    92     2    63    1
    93     3    64    1
    94     4    65    1
    95     5     6    1
    96     7     8    2
    97     9    78    1
    98    15    79    1
    99    18    80    1
   100    18    81    1
   101    19    82    1
   102    19    83    1
   103    20    23    1
   104    21    84    1
   105    21    85    1
   106    22    86    1
   107    22    87    1
   108    27    45    1
   109    28    34    1
   110    32    58    1
   111    33    46    2
   112    36    51    1
   113    36    66    1
   114    37    52    1
   115    37    67    1
   116    38    53    1
   117    38    68    1
   118    42    48    1
   119    42    72    1
   120    43    44    2
   121    60    73    1
   122    61    74    1
   123    39    69    1
   124    39    57    1
   125    40    70    1
   126    40    50    1
   127    41    71    1
   128    41    49    1
