@<TRIPOS>MOLECULE
*****
 123 128 0 0 0
SMALL
GASTEIGER

@<TRIPOS>ATOM
     1 C         -1.936386   3.173602   -2.022746 C.3        1 UNL1     0.0009
     2 C         -3.731898   3.629981   -1.952798 C.2        1 UNL1     -0.0787
     3 C         -5.045469   3.657673   -2.560918 C.2        1 UNL1     -0.0649
     4 C         -6.50207   4.172648   -1.868479 C.2        1 UNL1     -0.0542
     5 C         -7.914751   4.104273   -1.950549 C.2        1 UNL1     0.0115
     6 C         -9.100683   3.634186   -2.837063 C.3        1 UNL1     -0.0348
     7 C         -8.788397   4.520988   -0.669894 C.2        1 UNL1     0.2441
     8 O         -9.36014   5.598438   -0.576418 O.2        1 UNL1     -0.2702
     9 N         -9.068167   3.469158   0.219788 N.am        1 UNL1     -0.2772
     10 C         -8.061731   3.346526   1.15004 C.2        1 UNL1     0.1049
     11 C         -7.000506   2.657266   0.771961 C.2        1 UNL1     0.0801
     12 C         -6.677273   4.668346   2.760445 C.ar        1 UNL1     0.0753
     13 C         -5.533608   4.042806   2.169397 C.ar        1 UNL1     0.0305
     14 C         -5.668278   2.918996   1.245294 C.2        1 UNL1     0.0924
     15 N         -6.81894   1.871431   -0.303226 N.pl3        1 UNL1     -0.3170
     16 C         -5.545861   1.216666   -0.158977 C.3        1 UNL1     0.1275
     17 N         -4.728034   2.162638   0.686019 N.2        1 UNL1     -0.2557
     18 C         -5.771331   -0.027136   0.695319 C.3        1 UNL1     0.0016
     19 C         -6.845117   -0.880026   0.038699 C.3        1 UNL1     0.0026
     20 N         -6.403095   -1.23826   -1.301941 N.3        1 UNL1     -0.3018
     21 C         -6.101386   -0.10614   -2.180373 C.3        1 UNL1     0.0026
     22 C         -5.017341   0.734419   -1.503467 C.3        1 UNL1     0.0016
     23 C         -7.206135   -2.286619   -1.899197 C.3        1 UNL1     0.0012
     24 C         -6.948522   -3.628888   -1.196555 C.3        1 UNL1     -0.0339
     25 C         -7.042431   -4.806149   -2.181082 C.3        1 UNL1     -0.0615
     26 C         -5.604616   -3.597177   -0.489666 C.3        1 UNL1     -0.0615
     27 C         -6.537851   5.657493   3.73115 C.ar        1 UNL1     0.1347
     28 C         -5.311831   6.074545   4.217969 C.ar        1 UNL1     0.0342
     29 C         -4.198868   5.479735   3.586558 C.ar        1 UNL1     0.1435
     30 C         -4.322744   4.51367   2.587262 C.ar        1 UNL1     0.0774
     31 O         -2.939723   5.699734   4.023778 O.3        1 UNL1     -0.4436
     32 C         -2.173778   4.61101   3.486302 C.3        1 UNL1     0.3143
     33 C         -2.960089   4.129036   2.283959 C.2        1 UNL1     0.2504
     34 C         -5.091556   6.941143   5.426516 C.3        1 UNL1     -0.0327
     35 O         -0.946029   5.15818   2.989826 O.2        1 UNL1     -0.4528
     36 C         1.6439   2.408043   3.3601 C.3        1 UNL1     0.0854
     37 C         1.634281   0.944659   2.771938 C.3        1 UNL1     0.0236
     38 C         2.922124   0.559238   1.89749 C.3        1 UNL1     0.1131
     39 C         3.394166   1.517228   0.73057 C.3        1 UNL1     0.0200
     40 C         2.280232   2.190324   -0.312756 C.3        1 UNL1     0.0661
     41 C         1.058798   1.351399   -1.138537 C.3        1 UNL1     0.0091
     42 C         -0.620599   1.888658   -1.644877 C.3        1 UNL1     0.0661
     43 C         -8.018014   4.165862   2.37034 C.2        1 UNL1     0.2131
     44 O         -9.016951   4.315543   3.050383 O.2        1 UNL1     -0.2851
     45 O         -7.700519   6.24765   4.222431 O.3        1 UNL1     -0.5056
     46 O         -2.550721   3.572812   1.289531 O.2        1 UNL1     -0.2836
     47 C         -1.170222   4.141547   -2.964052 C.3        1 UNL1     -0.0566
     48 O         -0.492409   1.372357   -3.029116 O.3        1 UNL1     -0.3909
     49 C         0.916881   -0.026491   -0.53127 C.3        1 UNL1     -0.0577
     50 O         1.766553   3.397472   0.213221 O.3        1 UNL1     -0.3910
     51 O         2.682922   3.246834   2.90811 O.3        1 UNL1     -0.3753
     52 C         0.192842   0.486434   2.375412 C.3        1 UNL1     -0.0564
     53 O         3.060372   -0.914389   1.649225 O.3        1 UNL1     -0.4608
     54 C         4.228555   -1.627006   1.723086 C.2        1 UNL1     0.3042
     55 O         4.90645   -2.049002   0.787021 O.2        1 UNL1     -0.2512
     56 C         4.716118   -1.838611   3.128154 C.3        1 UNL1     0.0332
     57 C         4.533664   2.4716   1.321241 C.3        1 UNL1     -0.0567
     58 C         -2.177296   3.500473   4.562511 C.3        1 UNL1     0.0210
     59 C         3.696864   3.518951   3.874412 C.3        1 UNL1     0.0372
     60 C         0.374315   3.164682   3.184565 C.2        1 UNL1     -0.0208
     61 C         0.164502   4.422099   2.792613 C.2        1 UNL1     0.0882
     62 H         -1.816735   3.566049   -1.005701 H        1 UNL1     0.0365
     63 H         -3.769155   4.164601   -1.001345 H        1 UNL1     0.0576
     64 H         -5.243291   3.170938   -3.518552 H        1 UNL1     0.0615
     65 H         -6.187794   4.708552   -0.968745 H        1 UNL1     0.0622
     66 H         1.764577   2.26921   4.443709 H        1 UNL1     0.0645
     67 H         1.768843   0.299046   3.657171 H        1 UNL1     0.0362
     68 H         3.700381   0.637306   2.671921 H        1 UNL1     0.0741
     69 H         4.038552   0.96105   0.062857 H        1 UNL1     0.0359
     70 H         2.953878   2.509592   -1.130882 H        1 UNL1     0.0600
     71 H         1.588676   1.118787   -2.083036 H        1 UNL1     0.0348
     72 H         -0.049653   2.810499   -1.461722 H        1 UNL1     0.0602
     73 H         -0.433444   2.581422   3.551418 H        1 UNL1     0.0628
     74 H         0.926132   5.065548   2.350879 H        1 UNL1     0.1022
     75 H         -8.954521   3.963362   -3.894093 H        1 UNL1     0.0279
     76 H         -9.231507   2.559536   -2.942331 H        1 UNL1     0.0279
     77 H         -10.046323   4.135012   -2.582821 H        1 UNL1     0.0279
     78 H         -9.11956   2.591619   -0.2934 H        1 UNL1     0.1553
     79 H         -7.570712   1.485336   -0.844245 H        1 UNL1     0.1484
     80 H         -4.82535   -0.574445   0.786639 H        1 UNL1     0.0317
     81 H         -6.074813   0.245978   1.711665 H        1 UNL1     0.0317
     82 H         -7.815355   -0.362574   0.010523 H        1 UNL1     0.0428
     83 H         -6.99138   -1.760557   0.665055 H        1 UNL1     0.0428
     84 H         -5.69597   -0.401569   -3.153086 H        1 UNL1     0.0428
     85 H         -7.003673   0.468718   -2.430842 H        1 UNL1     0.0428
     86 H         -4.728659   1.472791   -2.228351 H        1 UNL1     0.0317
     87 H         -4.10671   0.137022   -1.373218 H        1 UNL1     0.0317
     88 H         -8.263811   -2.02202   -1.770344 H        1 UNL1     0.0429
     89 H         -7.022977   -2.363195   -2.978717 H        1 UNL1     0.0429
     90 H         -7.697905   -3.771688   -0.408998 H        1 UNL1     0.0308
     91 H         -8.067866   -4.947372   -2.535539 H        1 UNL1     0.0233
     92 H         -6.385326   -4.645603   -3.039014 H        1 UNL1     0.0233
     93 H         -6.728665   -5.75478   -1.728882 H        1 UNL1     0.0233
     94 H         -5.186495   -4.607709   -0.427728 H        1 UNL1     0.0233
     95 H         -4.901714   -2.975338   -1.0511 H        1 UNL1     0.0233
     96 H         -5.696495   -3.198453   0.524506 H        1 UNL1     0.0233
     97 H         -4.476033   6.449332   6.173834 H        1 UNL1     0.0280
     98 H         -4.571938   7.875398   5.176675 H        1 UNL1     0.0280
     99 H         -6.062773   7.187139   5.88621 H        1 UNL1     0.0280
     100 H         -8.302483   6.537734   3.559775 H        1 UNL1     0.2922
     101 H         -1.69994   4.228161   -3.9125 H        1 UNL1     0.0236
     102 H         -0.125137   3.86677   -3.102899 H        1 UNL1     0.0236
     103 H         -1.139984   5.169381   -2.565511 H        1 UNL1     0.0236
     104 H         -0.276255   2.129741   -3.607577 H        1 UNL1     0.2098
     105 H         0.857481   -0.833355   -1.257392 H        1 UNL1     0.0234
     106 H         1.65246   -0.26335   0.237332 H        1 UNL1     0.0234
     107 H         0.0   0.0   0.0 H        1 UNL1     0.0234
     108 H         0.972571   3.626131   -0.307428 H        1 UNL1     0.2098
     109 H         -0.491401   0.475299   3.235295 H        1 UNL1     0.0234
     110 H         -0.242523   1.085604   1.568445 H        1 UNL1     0.0234
     111 H         0.188447   -0.537582   1.978779 H        1 UNL1     0.0234
     112 H         3.880008   -2.125941   3.772908 H        1 UNL1     0.0342
     113 H         5.517855   -2.573913   3.177074 H        1 UNL1     0.0342
     114 H         5.115832   -0.885084   3.499878 H        1 UNL1     0.0342
     115 H         4.278858   3.533752   1.202515 H        1 UNL1     0.0234
     116 H         4.751067   2.302179   2.377689 H        1 UNL1     0.0234
     117 H         5.485141   2.417222   0.764757 H        1 UNL1     0.0234
     118 H         -1.183142   3.367109   5.023898 H        1 UNL1     0.0309
     119 H         -2.918273   3.668234   5.350554 H        1 UNL1     0.0309
     120 H         -2.396854   2.511582   4.145384 H        1 UNL1     0.0309
     121 H         4.152139   4.474215   3.614503 H        1 UNL1     0.0524
     122 H         3.2884   3.61248   4.894435 H        1 UNL1     0.0524
     123 H         4.445684   2.732009   3.865257 H        1 UNL1     0.0524
@<TRIPOS>BOND
     1     1     2    1
     2     1    42    1
     3     2     3    2
     4     3     4    1
     5     4     5    2
     6     5     7    1
     7     6    75    1
     8     6    76    1
     9     6    77    1
    10     7     9   am
    11     9    10    1
    12    10    11    2
    13    10    43    1
    14    11    14    1
    15    11    15    1
    16    12    13   ar
    17    12    27   ar
    18    12    43    1
    19    13    14    1
    20    13    30   ar
    21    14    17    2
    22    15    16    1
    23    16    17    1
    24    16    18    1
    25    16    22    1
    26    18    19    1
    27    19    20    1
    28    20    21    1
    29    21    22    1
    30    23    24    1
    31    23    88    1
    32    23    89    1
    33    24    25    1
    34    24    26    1
    35    24    90    1
    36    25    91    1
    37    25    92    1
    38    25    93    1
    39    26    94    1
    40    26    95    1
    41    26    96    1
    42    27    28   ar
    43    28    29   ar
    44    29    30   ar
    45    29    31    1
    46    30    33    1
    47    31    32    1
    48    32    33    1
    49    32    35    1
    50    34    97    1
    51    34    98    1
    52    34    99    1
    53    35    61    1
    54    36    37    1
    55    36    60    1
    56    37    38    1
    57    38    39    1
    58    39    40    1
    59    40    41    1
    60    41    42    1
    61    45   100    1
    62    47   101    1
    63    47   102    1
    64    47   103    1
    65    48   104    1
    66    49   105    1
    67    49   106    1
    68    49   107    1
    69    50   108    1
    70    51    59    1
    71    52   109    1
    72    52   110    1
    73    52   111    1
    74    53    54    1
    75    54    55    2
    76    54    56    1
    77    56   112    1
    78    56   113    1
    79    56   114    1
    80    57   115    1
    81    57   116    1
    82    57   117    1
    83    58   118    1
    84    58   119    1
    85    58   120    1
    86    59   121    1
    87    59   122    1
    88    59   123    1
    89    60    61    2
    90     1    47    1
    91     1    62    1
    92     2    63    1
    93     3    64    1
    94     4    65    1
    95     5     6    1
    96     7     8    2
    97     9    78    1
    98    15    79    1
    99    18    80    1
   100    18    81    1
   101    19    82    1
   102    19    83    1
   103    20    23    1
   104    21    84    1
   105    21    85    1
   106    22    86    1
   107    22    87    1
   108    27    45    1
   109    28    34    1
   110    32    58    1
   111    33    46    2
   112    36    51    1
   113    36    66    1
   114    37    52    1
   115    37    67    1
   116    38    53    1
   117    38    68    1
   118    42    48    1
   119    42    72    1
   120    43    44    2
   121    60    73    1
   122    61    74    1
   123    39    69    1
   124    39    57    1
   125    40    70    1
   126    40    50    1
   127    41    71    1
   128    41    49    1
