@<TRIPOS>MOLECULE
*****
 123 128 0 0 0
SMALL
GASTEIGER

@<TRIPOS>ATOM
     1 C         3.958845   3.286345   1.881285 C.3        1 UNL1     0.0009
     2 C         5.18821   4.606908   1.45489 C.2        1 UNL1     -0.0787
     3 C         6.547308   5.010209   1.161213 C.2        1 UNL1     -0.0649
     4 C         7.098222   6.535777   0.675936 C.2        1 UNL1     -0.0542
     5 C         8.153465   7.244067   0.049944 C.2        1 UNL1     0.0115
     6 C         9.60875   7.121347   -0.47959 C.3        1 UNL1     -0.0348
     7 C         7.874363   8.725066   -0.502987 C.2        1 UNL1     0.2441
     8 O         8.234969   9.734433   0.086645 O.2        1 UNL1     -0.2702
     9 N         7.421162   8.781699   -1.83248 N.am        1 UNL1     -0.2772
     10 C         6.049455   8.682836   -1.876847 C.2        1 UNL1     0.1049
     11 C         5.552149   7.460314   -1.828386 C.2        1 UNL1     0.0801
     12 C         3.959847   9.61444   -0.86542 C.ar        1 UNL1     0.0753
     13 C         3.55616   8.25918   -0.64425 C.ar        1 UNL1     0.0305
     14 C         4.281203   7.138204   -1.2382 C.2        1 UNL1     0.0924
     15 N         6.167516   6.271879   -1.952784 N.pl3        1 UNL1     -0.3170
     16 C         5.151889   5.253628   -1.996599 C.3        1 UNL1     0.1275
     17 N         3.996121   5.8392   -1.22263 N.2        1 UNL1     -0.2557
     18 C         4.681307   5.146348   -3.443923 C.3        1 UNL1     0.0016
     19 C         5.886783   4.869117   -4.327981 C.3        1 UNL1     0.0026
     20 N         6.514638   3.63087   -3.888013 N.3        1 UNL1     -0.3018
     21 C         6.946055   3.615566   -2.488723 C.3        1 UNL1     0.0026
     22 C         5.718727   3.891556   -1.618441 C.3        1 UNL1     0.0016
     23 C         7.482664   3.120728   -4.838447 C.3        1 UNL1     0.0012
     24 C         6.775742   2.595277   -6.09778 C.3        1 UNL1     -0.0339
     25 C         7.513573   1.384836   -6.693175 C.3        1 UNL1     -0.0615
     26 C         5.326613   2.267143   -5.782926 C.3        1 UNL1     -0.0615
     27 C         3.195683   10.68071   -0.397189 C.ar        1 UNL1     0.1347
     28 C         1.993529   10.517519   0.267825 C.ar        1 UNL1     0.0342
     29 C         1.640724   9.174167   0.517019 C.ar        1 UNL1     0.1435
     30 C         2.414594   8.096086   0.085642 C.ar        1 UNL1     0.0774
     31 O         0.446101   8.847756   1.056776 O.3        1 UNL1     -0.4436
     32 C         0.261877   7.464419   0.720156 C.3        1 UNL1     0.3143
     33 C         1.657702   6.926054   0.479224 C.2        1 UNL1     0.2504
     34 C         1.001496   11.604397   0.575509 C.3        1 UNL1     -0.0327
     35 O         -0.243604   6.805523   1.887888 O.2        1 UNL1     -0.4528
     36 C         -2.393723   3.945683   0.620453 C.3        1 UNL1     0.0854
     37 C         -2.001684   2.749913   -0.330315 C.3        1 UNL1     0.0236
     38 C         -2.301914   1.289824   0.261081 C.3        1 UNL1     0.1131
     39 C         -1.790591   0.908678   1.70868 C.3        1 UNL1     0.0200
     40 C         -0.251446   1.325769   2.198074 C.3        1 UNL1     0.0661
     41 C         1.178291   1.041688   1.330456 C.3        1 UNL1     0.0091
     42 C         2.734691   2.009578   1.251626 C.3        1 UNL1     0.0661
     43 C         5.172938   9.84828   -1.687604 C.2        1 UNL1     0.2131
     44 O         5.40145   10.894165   -2.267814 O.2        1 UNL1     -0.2851
     45 O         3.682597   11.967945   -0.614857 O.3        1 UNL1     -0.5056
     46 O         2.059736   5.791018   0.605375 O.2        1 UNL1     -0.2836
     47 C         4.102951   2.876342   3.371625 C.3        1 UNL1     -0.0566
     48 O         3.611919   0.830022   1.447167 O.3        1 UNL1     -0.3909
     49 C         0.820489   0.665073   -0.089978 C.3        1 UNL1     -0.0577
     50 O         -0.234948   2.629819   2.742963 O.3        1 UNL1     -0.3910
     51 O         -2.791145   3.590274   1.92551 O.3        1 UNL1     -0.3753
     52 C         -0.711943   3.062768   -1.15714 C.3        1 UNL1     -0.0564
     53 O         -2.254921   0.20214   -0.771906 O.3        1 UNL1     -0.4608
     54 C         -1.76455   -1.062046   -0.573659 C.2        1 UNL1     0.3042
     55 O         -0.676986   -1.506992   -0.938441 O.2        1 UNL1     -0.2512
     56 C         -2.677181   -1.941492   0.232809 C.3        1 UNL1     0.0332
     57 C         -2.993773   1.170177   2.729535 C.3        1 UNL1     -0.0567
     58 C         -0.519711   7.439234   -0.614016 C.3        1 UNL1     0.0210
     59 C         -4.185395   3.739984   2.189177 C.3        1 UNL1     0.0372
     60 C         -1.356318   5.00363   0.760805 C.2        1 UNL1     -0.0208
     61 C         -0.904614   5.632771   1.846571 C.2        1 UNL1     0.0882
     62 H         3.163426   4.04019   1.83961 H        1 UNL1     0.0365
     63 H         4.553056   5.494588   1.487641 H        1 UNL1     0.0576
     64 H         7.354015   4.279544   1.069225 H        1 UNL1     0.0615
     65 H         6.251154   7.196061   0.880837 H        1 UNL1     0.0622
     66 H         -3.248031   4.425556   0.122531 H        1 UNL1     0.0645
     67 H         -2.736149   2.809065   -1.152277 H        1 UNL1     0.0362
     68 H         -3.397959   1.346926   0.34443 H        1 UNL1     0.0741
     69 H         -1.785677   -0.169001   1.803505 H        1 UNL1     0.0359
     70 H         -0.142581   0.658443   3.074364 H        1 UNL1     0.0600
     71 H         1.466598   0.057819   1.749787 H        1 UNL1     0.0348
     72 H         2.220856   2.335669   2.16757 H        1 UNL1     0.0602
     73 H         -1.056848   5.329348   -0.204325 H        1 UNL1     0.0628
     74 H         -1.117276   5.324907   2.870892 H        1 UNL1     0.1022
     75 H         10.259701   6.618692   0.275814 H        1 UNL1     0.0279
     76 H         9.753251   6.502411   -1.36226 H        1 UNL1     0.0279
     77 H         10.107831   8.096146   -0.581505 H        1 UNL1     0.0279
     78 H         7.80197   7.99713   -2.357374 H        1 UNL1     0.1553
     79 H         7.073382   6.154505   -2.368191 H        1 UNL1     0.1484
     80 H         3.936576   4.344807   -3.519249 H        1 UNL1     0.0317
     81 H         4.183009   6.068154   -3.762709 H        1 UNL1     0.0317
     82 H         6.603395   5.70347   -4.312652 H        1 UNL1     0.0428
     83 H         5.528951   4.798173   -5.355586 H        1 UNL1     0.0428
     84 H         7.34098   2.648553   -2.162027 H        1 UNL1     0.0428
     85 H         7.77299   4.316221   -2.308225 H        1 UNL1     0.0428
     86 H         6.042568   3.741509   -0.605228 H        1 UNL1     0.0317
     87 H         4.970417   3.103129   -1.765105 H        1 UNL1     0.0317
     88 H         8.144786   3.94705   -5.128413 H        1 UNL1     0.0429
     89 H         8.114793   2.345477   -4.386592 H        1 UNL1     0.0429
     90 H         6.745718   3.391181   -6.851337 H        1 UNL1     0.0308
     91 H         7.782423   0.661832   -5.917231 H        1 UNL1     0.0233
     92 H         6.897327   0.889333   -7.447049 H        1 UNL1     0.0233
     93 H         8.44428   1.670161   -7.198357 H        1 UNL1     0.0233
     94 H         4.932432   1.555713   -6.516632 H        1 UNL1     0.0233
     95 H         5.25428   1.806218   -4.793847 H        1 UNL1     0.0233
     96 H         4.70135   3.164189   -5.800909 H        1 UNL1     0.0233
     97 H         0.046986   11.435324   0.086066 H        1 UNL1     0.0280
     98 H         0.781075   11.671759   1.648883 H        1 UNL1     0.0280
     99 H         1.398438   12.574088   0.233116 H        1 UNL1     0.0280
     100 H         4.582688   12.09266   -0.370101 H        1 UNL1     0.2922
     101 H         3.286904   3.306524   3.951855 H        1 UNL1     0.0236
     102 H         5.077593   3.122612   3.791634 H        1 UNL1     0.0236
     103 H         4.003089   1.787202   3.513032 H        1 UNL1     0.0236
     104 H         3.044902   0.034349   1.428044 H        1 UNL1     0.2098
     105 H         0.505238   1.500363   -0.710236 H        1 UNL1     0.0234
     106 H         1.575158   0.073501   -0.608093 H        1 UNL1     0.0234
     107 H         0.0   -0.0   0.0 H        1 UNL1     0.0234
     108 H         0.699192   2.909223   2.798498 H        1 UNL1     0.2098
     109 H         -0.796055   4.003442   -1.719073 H        1 UNL1     0.0234
     110 H         0.197058   3.080881   -0.546294 H        1 UNL1     0.0234
     111 H         -0.513367   2.285375   -1.906923 H        1 UNL1     0.0234
     112 H         -2.218971   -2.925428   0.371594 H        1 UNL1     0.0342
     113 H         -2.93723   -1.493014   1.190455 H        1 UNL1     0.0342
     114 H         -3.608397   -2.080498   -0.333477 H        1 UNL1     0.0342
     115 H         -2.993235   0.445747   3.555603 H        1 UNL1     0.0234
     116 H         -2.993671   2.169546   3.169207 H        1 UNL1     0.0234
     117 H         -3.990232   0.991545   2.290101 H        1 UNL1     0.0234
     118 H         -1.551478   7.068642   -0.483154 H        1 UNL1     0.0309
     119 H         -0.549531   8.413098   -1.112917 H        1 UNL1     0.0309
     120 H         -0.090265   6.739828   -1.339629 H        1 UNL1     0.0309
     121 H         -4.303521   3.893535   3.261476 H        1 UNL1     0.0524
     122 H         -4.615833   4.617606   1.678745 H        1 UNL1     0.0524
     123 H         -4.724723   2.850439   1.876244 H        1 UNL1     0.0524
@<TRIPOS>BOND
     1     1     2    1
     2     1    42    1
     3     2     3    2
     4     3     4    1
     5     4     5    2
     6     5     7    1
     7     6    75    1
     8     6    76    1
     9     6    77    1
    10     7     9   am
    11     9    10    1
    12    10    11    2
    13    10    43    1
    14    11    14    1
    15    11    15    1
    16    12    13   ar
    17    12    27   ar
    18    12    43    1
    19    13    14    1
    20    13    30   ar
    21    14    17    2
    22    15    16    1
    23    16    17    1
    24    16    18    1
    25    16    22    1
    26    18    19    1
    27    19    20    1
    28    20    21    1
    29    21    22    1
    30    23    24    1
    31    23    88    1
    32    23    89    1
    33    24    25    1
    34    24    26    1
    35    24    90    1
    36    25    91    1
    37    25    92    1
    38    25    93    1
    39    26    94    1
    40    26    95    1
    41    26    96    1
    42    27    28   ar
    43    28    29   ar
    44    29    30   ar
    45    29    31    1
    46    30    33    1
    47    31    32    1
    48    32    33    1
    49    32    35    1
    50    34    97    1
    51    34    98    1
    52    34    99    1
    53    35    61    1
    54    36    37    1
    55    36    60    1
    56    37    38    1
    57    38    39    1
    58    39    40    1
    59    40    41    1
    60    41    42    1
    61    45   100    1
    62    47   101    1
    63    47   102    1
    64    47   103    1
    65    48   104    1
    66    49   105    1
    67    49   106    1
    68    49   107    1
    69    50   108    1
    70    51    59    1
    71    52   109    1
    72    52   110    1
    73    52   111    1
    74    53    54    1
    75    54    55    2
    76    54    56    1
    77    56   112    1
    78    56   113    1
    79    56   114    1
    80    57   115    1
    81    57   116    1
    82    57   117    1
    83    58   118    1
    84    58   119    1
    85    58   120    1
    86    59   121    1
    87    59   122    1
    88    59   123    1
    89    60    61    2
    90     1    47    1
    91     1    62    1
    92     2    63    1
    93     3    64    1
    94     4    65    1
    95     5     6    1
    96     7     8    2
    97     9    78    1
    98    15    79    1
    99    18    80    1
   100    18    81    1
   101    19    82    1
   102    19    83    1
   103    20    23    1
   104    21    84    1
   105    21    85    1
   106    22    86    1
   107    22    87    1
   108    27    45    1
   109    28    34    1
   110    32    58    1
   111    33    46    2
   112    36    51    1
   113    36    66    1
   114    37    52    1
   115    37    67    1
   116    38    53    1
   117    38    68    1
   118    42    48    1
   119    42    72    1
   120    43    44    2
   121    60    73    1
   122    61    74    1
   123    39    69    1
   124    39    57    1
   125    40    70    1
   126    40    50    1
   127    41    71    1
   128    41    49    1
