@<TRIPOS>MOLECULE
*****
 123 128 0 0 0
SMALL
GASTEIGER

@<TRIPOS>ATOM
     1 C         -1.463291   2.161683   -3.426949 C.3        1 UNL1     0.0009
     2 C         -2.486122   3.707708   -3.452649 C.2        1 UNL1     -0.0787
     3 C         -3.751602   4.372894   -3.680975 C.2        1 UNL1     -0.0649
     4 C         -4.142625   5.994057   -3.388929 C.2        1 UNL1     -0.0542
     5 C         -5.199807   6.914786   -3.184717 C.2        1 UNL1     0.0115
     6 C         -6.741824   7.091975   -3.248833 C.3        1 UNL1     -0.0348
     7 C         -4.872615   8.337919   -2.517915 C.2        1 UNL1     0.2441
     8 O         -4.784385   9.371813   -3.165838 O.2        1 UNL1     -0.2702
     9 N         -4.952399   8.363136   -1.114651 N.am        1 UNL1     -0.2772
     10 C         -3.74484   8.008325   -0.558564 C.2        1 UNL1     0.1049
     11 C         -3.509262   6.712828   -0.45653 C.2        1 UNL1     0.0801
     12 C         -1.291802   8.484497   -0.673443 C.ar        1 UNL1     0.0753
     13 C         -1.101286   7.069299   -0.771042 C.ar        1 UNL1     0.0305
     14 C         -2.196364   6.131614   -0.533131 C.2        1 UNL1     0.0924
     15 N         -4.340761   5.668617   -0.613888 N.pl3        1 UNL1     -0.3170
     16 C         -3.631231   4.479243   -0.223747 C.3        1 UNL1     0.1275
     17 N         -2.180126   4.802632   -0.483432 N.2        1 UNL1     -0.2557
     18 C         -3.770988   4.34528   1.289601 C.3        1 UNL1     0.0016
     19 C         -5.249789   4.338384   1.642717 C.3        1 UNL1     0.0026
     20 N         -5.889304   3.224131   0.956794 N.3        1 UNL1     -0.3018
     21 C         -5.755567   3.232425   -0.501429 C.3        1 UNL1     0.0026
     22 C         -4.262394   3.234541   -0.833582 C.3        1 UNL1     0.0016
     23 C         -7.222401   2.94656   1.453232 C.3        1 UNL1     0.0012
     24 C         -7.156913   2.349777   2.867911 C.3        1 UNL1     -0.0339
     25 C         -8.265845   2.916914   3.7694 C.3        1 UNL1     -0.0615
     26 C         -7.215005   0.833746   2.796796 C.3        1 UNL1     -0.0615
     27 C         -0.21912   9.366352   -0.782087 C.ar        1 UNL1     0.1347
     28 C         1.089989   8.950944   -0.948581 C.ar        1 UNL1     0.0342
     29 C         1.247232   7.555891   -1.090938 C.ar        1 UNL1     0.1435
     30 C         0.177395   6.66275   -1.020457 C.ar        1 UNL1     0.0774
     31 O         2.471122   6.987009   -1.149867 O.3        1 UNL1     -0.4436
     32 C         2.247049   5.609076   -0.815253 C.3        1 UNL1     0.3143
     33 C         0.788394   5.355211   -1.137885 C.2        1 UNL1     0.2504
     34 C         2.312581   9.816574   -0.821879 C.3        1 UNL1     -0.0327
     35 O         3.019698   4.818283   -1.726796 O.2        1 UNL1     -0.4528
     36 C         3.944415   1.658521   0.162354 C.3        1 UNL1     0.0854
     37 C         3.002305   0.599303   0.853736 C.3        1 UNL1     0.0236
     38 C         3.218652   -0.914592   0.370972 C.3        1 UNL1     0.1131
     39 C         3.228342   -1.25209   -1.174431 C.3        1 UNL1     0.0200
     40 C         2.097602   -0.571952   -2.194861 C.3        1 UNL1     0.0661
     41 C         0.420448   -0.543799   -1.941933 C.3        1 UNL1     0.0091
     42 C         -0.835041   0.703656   -2.424642 C.3        1 UNL1     0.0661
     43 C         -2.656602   8.97784   -0.36329 C.2        1 UNL1     0.2131
     44 O         -2.88281   10.071345   0.122316 O.2        1 UNL1     -0.2851
     45 O         -0.496731   10.730425   -0.721463 O.3        1 UNL1     -0.5056
     46 O         0.254908   4.31255   -1.444649 O.2        1 UNL1     -0.2836
     47 C         -1.110188   1.724577   -4.874097 C.3        1 UNL1     -0.0566
     48 O         -1.781524   -0.295616   -2.976676 O.3        1 UNL1     -0.3909
     49 C         0.137199   -0.92176   -0.505128 C.3        1 UNL1     -0.0577
     50 O         2.537082   0.687759   -2.661454 O.3        1 UNL1     -0.3910
     51 O         4.728854   1.180187   -0.90689 O.3        1 UNL1     -0.3753
     52 C         1.581374   1.184866   1.141872 C.3        1 UNL1     -0.0564
     53 O         2.578886   -1.929664   1.272446 O.3        1 UNL1     -0.4608
     54 C         1.920494   -3.057956   0.858433 C.2        1 UNL1     0.3042
     55 O         1.198538   -3.181004   -0.130241 O.2        1 UNL1     -0.2512
     56 C         2.1924   -4.261484   1.715348 C.3        1 UNL1     0.0332
     57 C         4.753644   -1.265899   -1.655511 C.3        1 UNL1     -0.0567
     58 C         2.447493   5.492056   0.713688 C.3        1 UNL1     0.0210
     59 C         6.120454   1.05212   -0.618941 C.3        1 UNL1     0.0372
     60 C         3.259127   2.886934   -0.324002 C.2        1 UNL1     -0.0208
     61 C         3.379288   3.544366   -1.478163 C.2        1 UNL1     0.0882
     62 H         -0.614205   2.752389   -3.062489 H        1 UNL1     0.0365
     63 H         -1.728667   4.456946   -3.213119 H        1 UNL1     0.0576
     64 H         -4.656894   3.812641   -3.925251 H        1 UNL1     0.0615
     65 H         -3.171613   6.472915   -3.236236 H        1 UNL1     0.0622
     66 H         4.622522   1.988334   0.962004 H        1 UNL1     0.0645
     67 H         3.369288   0.552577   1.893784 H        1 UNL1     0.0362
     68 H         4.254317   -1.069538   0.709959 H        1 UNL1     0.0741
     69 H         3.0539   -2.312352   -1.300216 H        1 UNL1     0.0359
     70 H         2.20197   -1.24256   -3.06919 H        1 UNL1     0.0600
     71 H         0.129445   -1.471917   -2.471906 H        1 UNL1     0.0348
     72 H         0.038284   0.888087   -3.066985 H        1 UNL1     0.0602
     73 H         2.685973   3.30342   0.466746 H        1 UNL1     0.0628
     74 H         3.899499   3.15936   -2.355882 H        1 UNL1     0.1022
     75 H         -7.142889   6.690576   -4.210634 H        1 UNL1     0.0279
     76 H         -7.323787   6.548949   -2.507543 H        1 UNL1     0.0279
     77 H         -7.046461   8.147013   -3.310399 H        1 UNL1     0.0279
     78 H         -5.645236   7.687431   -0.799252 H        1 UNL1     0.1553
     79 H         -5.340789   5.742282   -0.575798 H        1 UNL1     0.1484
     80 H         -3.277478   3.421102   1.613806 H        1 UNL1     0.0317
     81 H         -3.263608   5.168566   1.803817 H        1 UNL1     0.0317
     82 H         -5.734176   5.291931   1.385753 H        1 UNL1     0.0428
     83 H         -5.326526   4.243906   2.726338 H        1 UNL1     0.0428
     84 H         -6.174909   2.34489   -0.985416 H        1 UNL1     0.0428
     85 H         -6.30318   4.068805   -0.957394 H        1 UNL1     0.0428
     86 H         -4.202469   3.106385   -1.898463 H        1 UNL1     0.0317
     87 H         -3.790036   2.325526   -0.44158 H        1 UNL1     0.0317
     88 H         -7.774058   3.894647   1.49906 H        1 UNL1     0.0429
     89 H         -7.772913   2.286835   0.770244 H        1 UNL1     0.0429
     90 H         -6.185483   2.591643   3.315165 H        1 UNL1     0.0308
     91 H         -9.256154   2.599813   3.429053 H        1 UNL1     0.0233
     92 H         -8.123176   2.597812   4.804498 H        1 UNL1     0.0233
     93 H         -8.271023   4.013523   3.785427 H        1 UNL1     0.0233
     94 H         -8.184873   0.510987   2.403073 H        1 UNL1     0.0233
     95 H         -6.437268   0.461171   2.124282 H        1 UNL1     0.0233
     96 H         -7.074843   0.382339   3.782978 H        1 UNL1     0.0233
     97 H         2.992045   9.452594   -0.056976 H        1 UNL1     0.0280
     98 H         2.895636   9.847874   -1.751569 H        1 UNL1     0.0280
     99 H         2.011877   10.8434   -0.556735 H        1 UNL1     0.0280
     100 H         -1.196371   11.012959   -1.283871 H        1 UNL1     0.2922
     101 H         -0.069142   1.966149   -5.087456 H        1 UNL1     0.0236
     102 H         -1.786965   2.134701   -5.622932 H        1 UNL1     0.0236
     103 H         -1.17618   0.631467   -5.004284 H        1 UNL1     0.0236
     104 H         -1.556674   -0.425887   -3.918718 H        1 UNL1     0.2098
     105 H         -0.763259   -1.514715   -0.365874 H        1 UNL1     0.0234
     106 H         0.975899   -1.379695   0.01909 H        1 UNL1     0.0234
     107 H         0.0   0.0   0.0 H        1 UNL1     0.0234
     108 H         3.065917   0.530292   -3.467249 H        1 UNL1     0.2098
     109 H         1.617404   2.050226   1.818307 H        1 UNL1     0.0234
     110 H         1.033983   1.453576   0.231981 H        1 UNL1     0.0234
     111 H         0.932702   0.448788   1.635187 H        1 UNL1     0.0234
     112 H         1.615387   -5.116452   1.350065 H        1 UNL1     0.0342
     113 H         3.254157   -4.498556   1.763434 H        1 UNL1     0.0342
     114 H         1.854462   -4.038803   2.736805 H        1 UNL1     0.0342
     115 H         4.927328   -2.014089   -2.441153 H        1 UNL1     0.0234
     116 H         5.108821   -0.304936   -2.032935 H        1 UNL1     0.0234
     117 H         5.457413   -1.607155   -0.876926 H        1 UNL1     0.0234
     118 H         3.361167   4.927715   0.97006 H        1 UNL1     0.0309
     119 H         2.472318   6.462611   1.219266 H        1 UNL1     0.0309
     120 H         1.651148   4.917478   1.19928 H        1 UNL1     0.0309
     121 H         6.664764   1.648779   -1.350434 H        1 UNL1     0.0524
     122 H         6.377865   1.437693   0.381614 H        1 UNL1     0.0524
     123 H         6.423526   0.01098   -0.684289 H        1 UNL1     0.0524
@<TRIPOS>BOND
     1     1     2    1
     2     1    42    1
     3     2     3    2
     4     3     4    1
     5     4     5    2
     6     5     7    1
     7     6    75    1
     8     6    76    1
     9     6    77    1
    10     7     9   am
    11     9    10    1
    12    10    11    2
    13    10    43    1
    14    11    14    1
    15    11    15    1
    16    12    13   ar
    17    12    27   ar
    18    12    43    1
    19    13    14    1
    20    13    30   ar
    21    14    17    2
    22    15    16    1
    23    16    17    1
    24    16    18    1
    25    16    22    1
    26    18    19    1
    27    19    20    1
    28    20    21    1
    29    21    22    1
    30    23    24    1
    31    23    88    1
    32    23    89    1
    33    24    25    1
    34    24    26    1
    35    24    90    1
    36    25    91    1
    37    25    92    1
    38    25    93    1
    39    26    94    1
    40    26    95    1
    41    26    96    1
    42    27    28   ar
    43    28    29   ar
    44    29    30   ar
    45    29    31    1
    46    30    33    1
    47    31    32    1
    48    32    33    1
    49    32    35    1
    50    34    97    1
    51    34    98    1
    52    34    99    1
    53    35    61    1
    54    36    37    1
    55    36    60    1
    56    37    38    1
    57    38    39    1
    58    39    40    1
    59    40    41    1
    60    41    42    1
    61    45   100    1
    62    47   101    1
    63    47   102    1
    64    47   103    1
    65    48   104    1
    66    49   105    1
    67    49   106    1
    68    49   107    1
    69    50   108    1
    70    51    59    1
    71    52   109    1
    72    52   110    1
    73    52   111    1
    74    53    54    1
    75    54    55    2
    76    54    56    1
    77    56   112    1
    78    56   113    1
    79    56   114    1
    80    57   115    1
    81    57   116    1
    82    57   117    1
    83    58   118    1
    84    58   119    1
    85    58   120    1
    86    59   121    1
    87    59   122    1
    88    59   123    1
    89    60    61    2
    90     1    47    1
    91     1    62    1
    92     2    63    1
    93     3    64    1
    94     4    65    1
    95     5     6    1
    96     7     8    2
    97     9    78    1
    98    15    79    1
    99    18    80    1
   100    18    81    1
   101    19    82    1
   102    19    83    1
   103    20    23    1
   104    21    84    1
   105    21    85    1
   106    22    86    1
   107    22    87    1
   108    27    45    1
   109    28    34    1
   110    32    58    1
   111    33    46    2
   112    36    51    1
   113    36    66    1
   114    37    52    1
   115    37    67    1
   116    38    53    1
   117    38    68    1
   118    42    48    1
   119    42    72    1
   120    43    44    2
   121    60    73    1
   122    61    74    1
   123    39    69    1
   124    39    57    1
   125    40    70    1
   126    40    50    1
   127    41    71    1
   128    41    49    1
