@<TRIPOS>MOLECULE
*****
 123 128 0 0 0
SMALL
GASTEIGER

@<TRIPOS>ATOM
     1 C         1.999743   2.635159   -3.873683 C.3        1 UNL1     0.0009
     2 C         2.959396   4.204006   -4.107828 C.2        1 UNL1     -0.0787
     3 C         3.059301   5.548409   -4.635697 C.2        1 UNL1     -0.0649
     4 C         4.302948   6.671478   -4.394006 C.2        1 UNL1     -0.0542
     5 C         4.653623   8.043332   -4.440066 C.2        1 UNL1     0.0115
     6 C         4.175945   9.447629   -4.90169 C.3        1 UNL1     -0.0348
     7 C         5.964269   8.536908   -3.655478 C.2        1 UNL1     0.2441
     8 O         7.024774   8.776456   -4.216257 O.2        1 UNL1     -0.2702
     9 N         5.741572   8.925865   -2.323086 N.am        1 UNL1     -0.2772
     10 C         5.845822   7.841512   -1.482471 C.2        1 UNL1     0.1049
     11 C         4.769152   7.084585   -1.372626 C.2        1 UNL1     0.0801
     12 C         7.317188   5.896149   -0.927515 C.ar        1 UNL1     0.0753
     13 C         6.144602   5.081395   -1.02664 C.ar        1 UNL1     0.0305
     14 C         4.810334   5.669207   -1.122853 C.2        1 UNL1     0.0924
     15 N         3.509601   7.309247   -1.784433 N.pl3        1 UNL1     -0.3170
     16 C         2.683012   6.250928   -1.267745 C.3        1 UNL1     0.1275
     17 N         3.619695   5.076497   -1.122614 N.2        1 UNL1     -0.2557
     18 C         2.276045   6.645579   0.148704 C.3        1 UNL1     0.0016
     19 C         1.597035   8.005003   0.098685 C.3        1 UNL1     0.0026
     20 N         0.434996   7.915605   -0.774643 N.3        1 UNL1     -0.3018
     21 C         0.718598   7.482556   -2.144463 C.3        1 UNL1     0.0026
     22 C         1.396184   6.113132   -2.070636 C.3        1 UNL1     0.0016
     23 C         -0.446966   9.059868   -0.658676 C.3        1 UNL1     0.0012
     24 C         -1.128128   9.077474   0.718809 C.3        1 UNL1     -0.0339
     25 C         -0.201296   9.66266   1.797048 C.3        1 UNL1     -0.0615
     26 C         -2.442296   9.834823   0.640289 C.3        1 UNL1     -0.0615
     27 C         8.572569   5.331444   -0.714805 C.ar        1 UNL1     0.1347
     28 C         8.774194   3.973149   -0.546189 C.ar        1 UNL1     0.0342
     29 C         7.612463   3.186403   -0.696439 C.ar        1 UNL1     0.1435
     30 C         6.353929   3.73524   -0.945621 C.ar        1 UNL1     0.0774
     31 O         7.624729   1.857714   -0.452631 O.3        1 UNL1     -0.4436
     32 C         6.246571   1.514714   -0.243096 C.3        1 UNL1     0.3143
     33 C         5.456889   2.598545   -0.948733 C.2        1 UNL1     0.2504
     34 C         10.04232   3.322728   -0.067745 C.3        1 UNL1     -0.0327
     35 O         5.999821   0.292239   -0.948732 O.2        1 UNL1     -0.4528
     36 C         3.272836   -1.497598   0.992436 C.3        1 UNL1     0.0854
     37 C         1.825374   -0.996927   1.368873 C.3        1 UNL1     0.0236
     38 C         0.633387   -1.962568   0.901487 C.3        1 UNL1     0.1131
     39 C         0.568569   -2.460392   -0.598593 C.3        1 UNL1     0.0200
     40 C         0.857894   -1.400538   -1.853758 C.3        1 UNL1     0.0661
     41 C         0.142294   0.124752   -2.051289 C.3        1 UNL1     0.0091
     42 C         0.806139   1.662847   -2.798936 C.3        1 UNL1     0.0661
     43 C         7.140326   7.36898   -0.969318 C.2        1 UNL1     0.2131
     44 O         7.951346   8.157333   -0.518225 O.2        1 UNL1     -0.2851
     45 O         9.668474   6.191065   -0.67629 O.3        1 UNL1     -0.5056
     46 O         4.346129   2.532123   -1.425866 O.2        1 UNL1     -0.2836
     47 C         1.974773   1.816371   -5.192373 C.3        1 UNL1     -0.0566
     48 O         -0.401762   1.920595   -3.619702 O.3        1 UNL1     -0.3909
     49 C         -0.531702   0.519017   -0.755999 C.3        1 UNL1     -0.0577
     50 O         2.240366   -1.326147   -2.138293 O.3        1 UNL1     -0.3910
     51 O         3.334603   -2.626377   0.150133 O.3        1 UNL1     -0.3753
     52 C         1.710893   0.560742   1.294648 C.3        1 UNL1     -0.0564
     53 O         -0.679602   -1.658829   1.561886 O.3        1 UNL1     -0.4608
     54 C         -1.646482   -2.579757   1.870051 C.2        1 UNL1     0.3042
     55 O         -2.81366   -2.358526   2.190349 O.2        1 UNL1     -0.2512
     56 C         -1.18748   -4.003312   1.730335 C.3        1 UNL1     0.0332
     57 C         1.26784   -3.897531   -0.660448 C.3        1 UNL1     -0.0567
     58 C         5.994943   1.624722   1.278782 C.3        1 UNL1     0.0210
     59 C         3.500754   -3.871222   0.827348 C.3        1 UNL1     0.0372
     60 C         4.159062   -0.464174   0.390938 C.2        1 UNL1     -0.0208
     61 C         4.972295   -0.53064   -0.66404 C.2        1 UNL1     0.0882
     62 H         2.829339   2.239569   -3.27536 H        1 UNL1     0.0365
     63 H         3.91141   3.930892   -3.647885 H        1 UNL1     0.0576
     64 H         2.21528   6.03276   -5.131824 H        1 UNL1     0.0615
     65 H         5.115447   6.07379   -3.971992 H        1 UNL1     0.0622
     66 H         3.731505   -1.764703   1.954893 H        1 UNL1     0.0645
     67 H         1.780264   -1.107899   2.466238 H        1 UNL1     0.0362
     68 H         0.877354   -2.856632   1.495331 H        1 UNL1     0.0741
     69 H         -0.434855   -2.806798   -0.807279 H        1 UNL1     0.0359
     70 H         0.433168   -1.98088   -2.695109 H        1 UNL1     0.0600
     71 H         -0.730623   -0.150606   -2.675109 H        1 UNL1     0.0348
     72 H         1.434118   0.844673   -3.180445 H        1 UNL1     0.0602
     73 H         4.172478   0.392378   1.018144 H        1 UNL1     0.0628
     74 H         4.978015   -1.346343   -1.387803 H        1 UNL1     0.1022
     75 H         3.366078   9.825859   -4.232292 H        1 UNL1     0.0279
     76 H         4.910217   10.248817   -4.856827 H        1 UNL1     0.0279
     77 H         3.660687   9.423485   -5.873094 H        1 UNL1     0.0279
     78 H         4.79869   9.297431   -2.228274 H        1 UNL1     0.1553
     79 H         3.150858   8.219177   -2.008631 H        1 UNL1     0.1484
     80 H         1.606362   5.878095   0.555226 H        1 UNL1     0.0317
     81 H         3.148125   6.68297   0.810315 H        1 UNL1     0.0317
     82 H         2.286684   8.792368   -0.239477 H        1 UNL1     0.0428
     83 H         1.316699   8.267956   1.119134 H        1 UNL1     0.0428
     84 H         -0.178691   7.346817   -2.75623 H        1 UNL1     0.0428
     85 H         1.306895   8.229139   -2.695678 H        1 UNL1     0.0428
     86 H         1.467306   5.770147   -3.086161 H        1 UNL1     0.0317
     87 H         0.720981   5.385655   -1.603759 H        1 UNL1     0.0317
     88 H         0.158856   9.969746   -0.76064 H        1 UNL1     0.0429
     89 H         -1.188822   9.075122   -1.467497 H        1 UNL1     0.0429
     90 H         -1.390241   8.051451   1.003037 H        1 UNL1     0.0308
     91 H         -0.63927   9.563065   2.794726 H        1 UNL1     0.0233
     92 H         0.771604   9.165845   1.781243 H        1 UNL1     0.0233
     93 H         -0.002164   10.729986   1.64214 H        1 UNL1     0.0233
     94 H         -3.198052   9.345554   1.264216 H        1 UNL1     0.0233
     95 H         -2.308319   10.855009   1.010737 H        1 UNL1     0.0233
     96 H         -2.81705   9.878374   -0.386176 H        1 UNL1     0.0233
     97 H         10.377789   2.539657   -0.741162 H        1 UNL1     0.0280
     98 H         10.873401   4.0368   0.000538 H        1 UNL1     0.0280
     99 H         9.875692   2.875898   0.926072 H        1 UNL1     0.0280
     100 H         10.287342   6.067988   -1.374485 H        1 UNL1     0.2922
     101 H         1.855114   2.489607   -6.040954 H        1 UNL1     0.0236
     102 H         1.227376   1.023668   -5.190642 H        1 UNL1     0.0236
     103 H         2.93154   1.300105   -5.377466 H        1 UNL1     0.0236
     104 H         -1.110164   2.219084   -3.016344 H        1 UNL1     0.2098
     105 H         -0.481562   1.580925   -0.528736 H        1 UNL1     0.0234
     106 H         -1.553834   0.156991   -0.645953 H        1 UNL1     0.0234
     107 H         0.0   0.0   0.0 H        1 UNL1     0.0234
     108 H         2.523931   -2.212864   -2.433406 H        1 UNL1     0.2098
     109 H         2.477743   1.063531   1.900333 H        1 UNL1     0.0234
     110 H         1.742404   0.94627   0.269895 H        1 UNL1     0.0234
     111 H         0.746444   0.914622   1.68266 H        1 UNL1     0.0234
     112 H         -1.755873   -4.501659   0.93918 H        1 UNL1     0.0342
     113 H         -0.116661   -4.071997   1.544667 H        1 UNL1     0.0342
     114 H         -1.395758   -4.525192   2.674489 H        1 UNL1     0.0342
     115 H         2.168492   -3.940841   -0.032643 H        1 UNL1     0.0234
     116 H         0.617478   -4.72103   -0.358907 H        1 UNL1     0.0234
     117 H         1.687319   -4.140342   -1.651922 H        1 UNL1     0.0234
     118 H         6.8878   1.980761   1.821964 H        1 UNL1     0.0309
     119 H         5.144243   2.266799   1.52828 H        1 UNL1     0.0309
     120 H         5.788079   0.653729   1.741908 H        1 UNL1     0.0309
     121 H         3.880476   -4.592064   0.103778 H        1 UNL1     0.0524
     122 H         4.234644   -3.806428   1.647862 H        1 UNL1     0.0524
     123 H         2.550382   -4.209676   1.230258 H        1 UNL1     0.0524
@<TRIPOS>BOND
     1     1     2    1
     2     1    42    1
     3     2     3    2
     4     3     4    1
     5     4     5    2
     6     5     7    1
     7     6    75    1
     8     6    76    1
     9     6    77    1
    10     7     9   am
    11     9    10    1
    12    10    11    2
    13    10    43    1
    14    11    14    1
    15    11    15    1
    16    12    13   ar
    17    12    27   ar
    18    12    43    1
    19    13    14    1
    20    13    30   ar
    21    14    17    2
    22    15    16    1
    23    16    17    1
    24    16    18    1
    25    16    22    1
    26    18    19    1
    27    19    20    1
    28    20    21    1
    29    21    22    1
    30    23    24    1
    31    23    88    1
    32    23    89    1
    33    24    25    1
    34    24    26    1
    35    24    90    1
    36    25    91    1
    37    25    92    1
    38    25    93    1
    39    26    94    1
    40    26    95    1
    41    26    96    1
    42    27    28   ar
    43    28    29   ar
    44    29    30   ar
    45    29    31    1
    46    30    33    1
    47    31    32    1
    48    32    33    1
    49    32    35    1
    50    34    97    1
    51    34    98    1
    52    34    99    1
    53    35    61    1
    54    36    37    1
    55    36    60    1
    56    37    38    1
    57    38    39    1
    58    39    40    1
    59    40    41    1
    60    41    42    1
    61    45   100    1
    62    47   101    1
    63    47   102    1
    64    47   103    1
    65    48   104    1
    66    49   105    1
    67    49   106    1
    68    49   107    1
    69    50   108    1
    70    51    59    1
    71    52   109    1
    72    52   110    1
    73    52   111    1
    74    53    54    1
    75    54    55    2
    76    54    56    1
    77    56   112    1
    78    56   113    1
    79    56   114    1
    80    57   115    1
    81    57   116    1
    82    57   117    1
    83    58   118    1
    84    58   119    1
    85    58   120    1
    86    59   121    1
    87    59   122    1
    88    59   123    1
    89    60    61    2
    90     1    47    1
    91     1    62    1
    92     2    63    1
    93     3    64    1
    94     4    65    1
    95     5     6    1
    96     7     8    2
    97     9    78    1
    98    15    79    1
    99    18    80    1
   100    18    81    1
   101    19    82    1
   102    19    83    1
   103    20    23    1
   104    21    84    1
   105    21    85    1
   106    22    86    1
   107    22    87    1
   108    27    45    1
   109    28    34    1
   110    32    58    1
   111    33    46    2
   112    36    51    1
   113    36    66    1
   114    37    52    1
   115    37    67    1
   116    38    53    1
   117    38    68    1
   118    42    48    1
   119    42    72    1
   120    43    44    2
   121    60    73    1
   122    61    74    1
   123    39    69    1
   124    39    57    1
   125    40    70    1
   126    40    50    1
   127    41    71    1
   128    41    49    1
