@<TRIPOS>MOLECULE
*****
 123 128 0 0 0
SMALL
GASTEIGER

@<TRIPOS>ATOM
     1 C         3.243048   -2.322333   -1.166191 C.3        1 UNL1     0.0009
     2 C         4.979343   -1.751738   -1.477214 C.2        1 UNL1     -0.0787
     3 C         6.031182   -1.37275   -2.397024 C.2        1 UNL1     -0.0649
     4 C         7.564774   -0.757829   -2.027801 C.2        1 UNL1     -0.0542
     5 C         8.678614   -0.039015   -2.527546 C.2        1 UNL1     0.0115
     6 C         9.324066   0.541922   -3.815655 C.3        1 UNL1     -0.0348
     7 C         9.717927   0.604881   -1.48725 C.2        1 UNL1     0.2441
     8 O         10.805579   0.103965   -1.237006 O.2        1 UNL1     -0.2702
     9 N         9.409075   1.914573   -1.080472 N.am        1 UNL1     -0.2772
     10 C         8.576727   1.893466   0.015007 C.2        1 UNL1     0.1049
     11 C         7.289337   1.73758   -0.23509 C.2        1 UNL1     0.0801
     12 C         8.301441   0.8625   2.277452 C.ar        1 UNL1     0.0753
     13 C         6.968372   0.529089   1.876987 C.ar        1 UNL1     0.0305
     14 C         6.377698   1.072583   0.656016 C.2        1 UNL1     0.0924
     15 N         6.621392   1.803689   -1.399567 N.pl3        1 UNL1     -0.3170
     16 C         5.215033   1.732166   -1.104112 C.3        1 UNL1     0.1275
     17 N         5.139166   0.953093   0.186241 N.2        1 UNL1     -0.2557
     18 C         4.750133   3.146958   -0.772546 C.3        1 UNL1     0.0016
     19 C         5.101443   4.059661   -1.936652 C.3        1 UNL1     0.0026
     20 N         4.44523   3.560339   -3.137106 N.3        1 UNL1     -0.3018
     21 C         4.782501   2.183084   -3.502873 C.3        1 UNL1     0.0026
     22 C         4.417133   1.283092   -2.321172 C.3        1 UNL1     0.0016
     23 C         4.467413   4.512626   -4.229489 C.3        1 UNL1     0.0012
     24 C         3.918167   5.872362   -3.76992 C.3        1 UNL1     -0.0339
     25 C         3.581457   5.864898   -2.26971 C.3        1 UNL1     -0.0615
     26 C         4.9027   6.975741   -4.116372 C.3        1 UNL1     -0.0615
     27 C         8.814787   0.438764   3.500989 C.ar        1 UNL1     0.1347
     28 C         8.079443   -0.286644   4.421372 C.ar        1 UNL1     0.0342
     29 C         6.786306   -0.644977   3.984844 C.ar        1 UNL1     0.1435
     30 C         6.271416   -0.258392   2.746838 C.ar        1 UNL1     0.0774
     31 O         5.908432   -1.256775   4.809493 O.3        1 UNL1     -0.4436
     32 C         4.625298   -1.026951   4.208144 C.3        1 UNL1     0.3143
     33 C         4.915116   -0.76555   2.743942 C.2        1 UNL1     0.2504
     34 C         8.472811   -0.558612   5.846642 C.3        1 UNL1     -0.0327
     35 O         3.896416   -2.258786   4.275712 O.2        1 UNL1     -0.4528
     36 C         0.234222   -1.289322   4.513546 C.3        1 UNL1     0.0854
     37 C         -0.629469   -0.409676   3.529787 C.3        1 UNL1     0.0236
     38 C         -1.963272   -1.115063   2.986518 C.3        1 UNL1     0.1131
     39 C         -1.884054   -2.562933   2.354327 C.3        1 UNL1     0.0200
     40 C         -0.658194   -2.955714   1.293465 C.3        1 UNL1     0.0661
     41 C         -0.189263   -2.050342   -0.062269 C.3        1 UNL1     0.0091
     42 C         1.459078   -1.837156   -0.838754 C.3        1 UNL1     0.0661
     43 C         9.08877   1.750002   1.385986 C.2        1 UNL1     0.2131
     44 O         10.038601   2.411904   1.763403 O.2        1 UNL1     -0.2851
     45 O         10.136611   0.767414   3.794603 O.3        1 UNL1     -0.5056
     46 O         4.196379   -0.954431   1.78812 O.2        1 UNL1     -0.2836
     47 C         3.101947   -3.830454   -1.506256 C.3        1 UNL1     -0.0566
     48 O         0.967366   -2.078131   -2.216893 O.3        1 UNL1     -0.3909
     49 C         -0.81551   -0.676597   0.027913 C.3        1 UNL1     -0.0577
     50 O         0.48467   -3.405836   1.992732 O.3        1 UNL1     -0.3910
     51 O         -0.171128   -2.631959   4.656544 O.3        1 UNL1     -0.3753
     52 C         0.265154   0.491298   2.617182 C.3        1 UNL1     -0.0564
     53 O         -2.93117   -0.160509   2.350651 O.3        1 UNL1     -0.4608
     54 C         -3.441859   -0.272071   1.083891 C.2        1 UNL1     0.3042
     55 O         -3.862417   -1.289818   0.535111 O.2        1 UNL1     -0.2512
     56 C         -3.523772   1.036733   0.351064 C.3        1 UNL1     0.0332
     57 C         -2.235973   -3.612982   3.508331 C.3        1 UNL1     -0.0567
     58 C         4.069113   0.267655   4.845471 C.3        1 UNL1     0.0210
     59 C         0.472562   -3.343151   5.712828 C.3        1 UNL1     0.0372
     60 C         1.693535   -1.310273   4.221783 C.2        1 UNL1     -0.0208
     61 C         2.554139   -2.328643   4.189696 C.2        1 UNL1     0.0882
     62 H         3.436453   -2.261322   -0.088423 H        1 UNL1     0.0365
     63 H         5.377821   -1.74862   -0.460516 H        1 UNL1     0.0576
     64 H         5.852252   -1.298434   -3.471998 H        1 UNL1     0.0615
     65 H         7.672288   -0.951365   -0.957068 H        1 UNL1     0.0622
     66 H         0.129191   -0.795496   5.48984 H        1 UNL1     0.0645
     67 H         -1.047359   0.382433   4.175147 H        1 UNL1     0.0362
     68 H         -2.504904   -1.2407   3.936451 H        1 UNL1     0.0741
     69 H         -2.773489   -2.733426   1.762511 H        1 UNL1     0.0359
     70 H         -1.083978   -3.871572   0.840727 H        1 UNL1     0.0600
     71 H         -0.819452   -2.52555   -0.839441 H        1 UNL1     0.0348
     72 H         1.527413   -2.748771   -0.227522 H        1 UNL1     0.0602
     73 H         2.048841   -0.312669   4.145677 H        1 UNL1     0.0628
     74 H         2.265841   -3.380283   4.202969 H        1 UNL1     0.1022
     75 H         10.268412   1.085089   -3.570269 H        1 UNL1     0.0279
     76 H         9.655037   -0.178861   -4.559966 H        1 UNL1     0.0279
     77 H         8.723294   1.344818   -4.267466 H        1 UNL1     0.0279
     78 H         8.91777   2.398395   -1.829213 H        1 UNL1     0.1553
     79 H         6.981864   2.247902   -2.223986 H        1 UNL1     0.1484
     80 H         3.669495   3.133682   -0.58597 H        1 UNL1     0.0317
     81 H         5.222562   3.508647   0.147043 H        1 UNL1     0.0317
     82 H         6.189239   4.133855   -2.081938 H        1 UNL1     0.0428
     83 H         4.762825   5.06353   -1.678512 H        1 UNL1     0.0428
     84 H         4.216743   1.80592   -4.360472 H        1 UNL1     0.0428
     85 H         5.83228   2.087909   -3.813072 H        1 UNL1     0.0428
     86 H         4.551533   0.276496   -2.671441 H        1 UNL1     0.0317
     87 H         3.339616   1.341686   -2.124652 H        1 UNL1     0.0317
     88 H         5.510369   4.645701   -4.545443 H        1 UNL1     0.0429
     89 H         3.913675   4.13522   -5.098807 H        1 UNL1     0.0429
     90 H         3.004309   6.099078   -4.331772 H        1 UNL1     0.0308
     91 H         2.820979   5.113639   -2.036503 H        1 UNL1     0.0233
     92 H         4.475683   5.666905   -1.674086 H        1 UNL1     0.0233
     93 H         3.19156   6.830079   -1.924399 H        1 UNL1     0.0233
     94 H         5.880342   6.763358   -3.670339 H        1 UNL1     0.0233
     95 H         5.032334   7.03391   -5.200703 H        1 UNL1     0.0233
     96 H         4.559048   7.946908   -3.74935 H        1 UNL1     0.0233
     97 H         8.469359   -1.620295   6.074784 H        1 UNL1     0.0280
     98 H         9.488379   -0.206519   6.070042 H        1 UNL1     0.0280
     99 H         7.765434   -0.05668   6.526918 H        1 UNL1     0.0280
     100 H         10.774966   0.168298   3.449372 H        1 UNL1     0.2922
     101 H         3.816837   -4.100614   -2.283174 H        1 UNL1     0.0236
     102 H         2.084301   -4.117173   -1.769262 H        1 UNL1     0.0236
     103 H         3.362837   -4.47429   -0.649749 H        1 UNL1     0.0236
     104 H         1.360542   -1.394583   -2.794081 H        1 UNL1     0.2098
     105 H         -1.480009   -0.43094   -0.79665 H        1 UNL1     0.0234
     106 H         -1.298365   -0.457888   0.98025 H        1 UNL1     0.0234
     107 H         0.0   0.0   0.0 H        1 UNL1     0.0234
     108 H         1.145996   -2.687945   1.960356 H        1 UNL1     0.2098
     109 H         1.289604   0.587042   3.003248 H        1 UNL1     0.0234
     110 H         0.296124   0.1528   1.575931 H        1 UNL1     0.0234
     111 H         -0.125092   1.515739   2.552568 H        1 UNL1     0.0234
     112 H         -4.166613   1.73124   0.900392 H        1 UNL1     0.0342
     113 H         -2.540294   1.470168   0.175709 H        1 UNL1     0.0342
     114 H         -3.986074   0.853077   -0.628585 H        1 UNL1     0.0342
     115 H         -3.320541   -3.711783   3.653724 H        1 UNL1     0.0234
     116 H         -1.835377   -4.613772   3.335153 H        1 UNL1     0.0234
     117 H         -1.915175   -3.286826   4.512647 H        1 UNL1     0.0234
     118 H         4.196283   1.142897   4.184574 H        1 UNL1     0.0309
     119 H         3.016271   0.186583   5.133834 H        1 UNL1     0.0309
     120 H         4.610781   0.555686   5.753071 H        1 UNL1     0.0309
     121 H         1.001692   -4.185706   5.268442 H        1 UNL1     0.0524
     122 H         1.217341   -2.724483   6.240646 H        1 UNL1     0.0524
     123 H         -0.262582   -3.698079   6.429545 H        1 UNL1     0.0524
@<TRIPOS>BOND
     1     1     2    1
     2     1    42    1
     3     2     3    2
     4     3     4    1
     5     4     5    2
     6     5     7    1
     7     6    75    1
     8     6    76    1
     9     6    77    1
    10     7     9   am
    11     9    10    1
    12    10    11    2
    13    10    43    1
    14    11    14    1
    15    11    15    1
    16    12    13   ar
    17    12    27   ar
    18    12    43    1
    19    13    14    1
    20    13    30   ar
    21    14    17    2
    22    15    16    1
    23    16    17    1
    24    16    18    1
    25    16    22    1
    26    18    19    1
    27    19    20    1
    28    20    21    1
    29    21    22    1
    30    23    24    1
    31    23    88    1
    32    23    89    1
    33    24    25    1
    34    24    26    1
    35    24    90    1
    36    25    91    1
    37    25    92    1
    38    25    93    1
    39    26    94    1
    40    26    95    1
    41    26    96    1
    42    27    28   ar
    43    28    29   ar
    44    29    30   ar
    45    29    31    1
    46    30    33    1
    47    31    32    1
    48    32    33    1
    49    32    35    1
    50    34    97    1
    51    34    98    1
    52    34    99    1
    53    35    61    1
    54    36    37    1
    55    36    60    1
    56    37    38    1
    57    38    39    1
    58    39    40    1
    59    40    41    1
    60    41    42    1
    61    45   100    1
    62    47   101    1
    63    47   102    1
    64    47   103    1
    65    48   104    1
    66    49   105    1
    67    49   106    1
    68    49   107    1
    69    50   108    1
    70    51    59    1
    71    52   109    1
    72    52   110    1
    73    52   111    1
    74    53    54    1
    75    54    55    2
    76    54    56    1
    77    56   112    1
    78    56   113    1
    79    56   114    1
    80    57   115    1
    81    57   116    1
    82    57   117    1
    83    58   118    1
    84    58   119    1
    85    58   120    1
    86    59   121    1
    87    59   122    1
    88    59   123    1
    89    60    61    2
    90     1    47    1
    91     1    62    1
    92     2    63    1
    93     3    64    1
    94     4    65    1
    95     5     6    1
    96     7     8    2
    97     9    78    1
    98    15    79    1
    99    18    80    1
   100    18    81    1
   101    19    82    1
   102    19    83    1
   103    20    23    1
   104    21    84    1
   105    21    85    1
   106    22    86    1
   107    22    87    1
   108    27    45    1
   109    28    34    1
   110    32    58    1
   111    33    46    2
   112    36    51    1
   113    36    66    1
   114    37    52    1
   115    37    67    1
   116    38    53    1
   117    38    68    1
   118    42    48    1
   119    42    72    1
   120    43    44    2
   121    60    73    1
   122    61    74    1
   123    39    69    1
   124    39    57    1
   125    40    70    1
   126    40    50    1
   127    41    71    1
   128    41    49    1
