@<TRIPOS>MOLECULE
*****
 123 128 0 0 0
SMALL
GASTEIGER

@<TRIPOS>ATOM
     1 C         -3.772402   1.142864   -1.287314 C.3        1 UNL1     0.0009
     2 C         -4.908804   0.203414   -2.411174 C.2        1 UNL1     -0.0787
     3 C         -5.472823   -0.020583   -3.725615 C.2        1 UNL1     -0.0649
     4 C         -6.514675   -1.262908   -4.212987 C.2        1 UNL1     -0.0542
     5 C         -7.019995   -1.986666   -5.321095 C.2        1 UNL1     0.0115
     6 C         -7.08245   -2.027045   -6.872801 C.3        1 UNL1     -0.0348
     7 C         -7.726478   -3.405316   -5.065549 C.2        1 UNL1     0.2441
     8 O         -8.940676   -3.554412   -5.069952 O.2        1 UNL1     -0.2702
     9 N         -6.857585   -4.509966   -5.095959 N.am        1 UNL1     -0.2772
     10 C         -6.323338   -4.735186   -3.848089 C.2        1 UNL1     0.1049
     11 C         -5.274115   -4.001862   -3.523146 C.2        1 UNL1     0.0801
     12 C         -6.947045   -4.979889   -1.438018 C.ar        1 UNL1     0.0753
     13 C         -5.927362   -4.015509   -1.157259 C.ar        1 UNL1     0.0305
     14 C         -4.970378   -3.594576   -2.178067 C.2        1 UNL1     0.0924
     15 N         -4.502913   -3.21051   -4.28835 N.pl3        1 UNL1     -0.3170
     16 C         -3.389987   -2.774363   -3.487459 C.3        1 UNL1     0.1275
     17 N         -3.911793   -2.796474   -2.071495 N.2        1 UNL1     -0.2557
     18 C         -2.324199   -3.863436   -3.563072 C.3        1 UNL1     0.0016
     19 C         -1.986518   -4.112817   -5.024362 C.3        1 UNL1     0.0026
     20 N         -1.50782   -2.869499   -5.612611 N.3        1 UNL1     -0.3018
     21 C         -2.441233   -1.744017   -5.532628 C.3        1 UNL1     0.0026
     22 C         -2.763105   -1.508105   -4.055929 C.3        1 UNL1     0.0016
     23 C         -0.881391   -3.06176   -6.905386 C.3        1 UNL1     0.0012
     24 C         0.276084   -4.067076   -6.798862 C.3        1 UNL1     -0.0339
     25 C         -0.170559   -5.483245   -7.197648 C.3        1 UNL1     -0.0615
     26 C         1.453496   -3.596129   -7.63474 C.3        1 UNL1     -0.0615
     27 C         -7.777859   -5.46575   -0.431139 C.ar        1 UNL1     0.1347
     28 C         -7.658692   -5.09301   0.895856 C.ar        1 UNL1     0.0342
     29 C         -6.680265   -4.106092   1.140473 C.ar        1 UNL1     0.1435
     30 C         -5.864927   -3.583523   0.135801 C.ar        1 UNL1     0.0774
     31 O         -6.36832   -3.719062   2.396619 O.3        1 UNL1     -0.4436
     32 C         -5.074757   -3.108082   2.277154 C.3        1 UNL1     0.3143
     33 C         -4.972393   -2.677379   0.827937 C.2        1 UNL1     0.2504
     34 C         -8.340129   -5.753522   2.061818 C.3        1 UNL1     -0.0327
     35 O         -5.093593   -1.912834   3.067269 O.2        1 UNL1     -0.4528
     36 C         -1.529099   -1.403061   4.26835 C.3        1 UNL1     0.0854
     37 C         -0.204293   -1.259915   3.424595 C.3        1 UNL1     0.0236
     38 C         0.647633   0.065408   3.723738 C.3        1 UNL1     0.1131
     39 C         -0.063735   1.478086   3.699922 C.3        1 UNL1     0.0200
     40 C         -1.147499   1.858008   2.490147 C.3        1 UNL1     0.0661
     41 C         -0.885155   1.667121   0.82511 C.3        1 UNL1     0.0091
     42 C         -2.060528   1.273872   -0.52739 C.3        1 UNL1     0.0661
     43 C         -7.032033   -5.512512   -2.820534 C.2        1 UNL1     0.2131
     44 O         -7.556083   -6.575164   -3.101387 O.2        1 UNL1     -0.2851
     45 O         -8.774732   -6.368007   -0.796673 O.3        1 UNL1     -0.5056
     46 O         -4.318571   -1.7751   0.354373 O.2        1 UNL1     -0.2836
     47 C         -4.370501   2.537191   -0.958509 C.3        1 UNL1     -0.0566
     48 O         -1.563727   2.345055   -1.424537 O.3        1 UNL1     -0.3909
     49 C         0.332037   0.793147   0.61991 C.3        1 UNL1     -0.0577
     50 O         -2.448627   1.420991   2.827498 O.3        1 UNL1     -0.3910
     51 O         -1.889808   -0.282268   5.043684 O.3        1 UNL1     -0.3753
     52 C         -0.370314   -1.832733   1.979166 C.3        1 UNL1     -0.0564
     53 O         2.047843   0.013384   3.186124 O.3        1 UNL1     -0.4608
     54 C         2.972872   -0.957111   3.469657 C.2        1 UNL1     0.3042
     55 O         3.548981   -1.150016   4.539575 O.2        1 UNL1     -0.2512
     56 C         3.231295   -1.894523   2.324585 C.3        1 UNL1     0.0332
     57 C         -0.469332   1.839248   5.204324 C.3        1 UNL1     -0.0567
     58 C         -4.037647   -4.224657   2.540197 C.3        1 UNL1     0.0210
     59 C         -3.282802   -0.177758   5.334395 C.3        1 UNL1     0.0372
     60 C         -2.734552   -1.789402   3.485545 C.2        1 UNL1     -0.0208
     61 C         -3.978129   -1.308683   3.519738 C.2        1 UNL1     0.0882
     62 H         -4.063696   0.476012   -0.466846 H        1 UNL1     0.0365
     63 H         -5.39452   -0.464972   -1.697165 H        1 UNL1     0.0576
     64 H         -5.125327   0.534528   -4.599803 H        1 UNL1     0.0615
     65 H         -6.861671   -1.696543   -3.27116 H        1 UNL1     0.0622
     66 H         -1.332053   -2.241242   4.951484 H        1 UNL1     0.0645
     67 H         0.458548   -2.043361   3.831306 H        1 UNL1     0.0362
     68 H         0.90349   -0.114675   4.779024 H        1 UNL1     0.0741
     69 H         0.690744   2.245903   3.592095 H        1 UNL1     0.0359
     70 H         -1.18611   2.957943   2.607244 H        1 UNL1     0.0600
     71 H         -0.478433   2.66726   0.577612 H        1 UNL1     0.0348
     72 H         -2.672339   1.644492   0.307861 H        1 UNL1     0.0602
     73 H         -2.516868   -2.657879   2.914923 H        1 UNL1     0.0628
     74 H         -4.27092   -0.391747   4.03232 H        1 UNL1     0.1022
     75 H         -6.098251   -1.735363   -7.312471 H        1 UNL1     0.0279
     76 H         -7.262534   -2.999311   -7.325943 H        1 UNL1     0.0279
     77 H         -7.744447   -1.255205   -7.291995 H        1 UNL1     0.0279
     78 H         -6.084623   -4.319782   -5.730339 H        1 UNL1     0.1553
     79 H         -4.461393   -3.2726   -5.289027 H        1 UNL1     0.1484
     80 H         -1.441872   -3.540086   -2.997642 H        1 UNL1     0.0317
     81 H         -2.675834   -4.788322   -3.093403 H        1 UNL1     0.0317
     82 H         -2.849969   -4.507012   -5.580217 H        1 UNL1     0.0428
     83 H         -1.226227   -4.893873   -5.055333 H        1 UNL1     0.0428
     84 H         -2.02743   -0.803368   -5.909137 H        1 UNL1     0.0428
     85 H         -3.334435   -1.908989   -6.150926 H        1 UNL1     0.0428
     86 H         -3.338053   -0.601166   -4.026205 H        1 UNL1     0.0317
     87 H         -1.8483   -1.246667   -3.510146 H        1 UNL1     0.0317
     88 H         -1.634808   -3.467811   -7.592975 H        1 UNL1     0.0429
     89 H         -0.540105   -2.108362   -7.328859 H        1 UNL1     0.0429
     90 H         0.635262   -4.092876   -5.763228 H        1 UNL1     0.0308
     91 H         0.668066   -6.18563   -7.176074 H        1 UNL1     0.0233
     92 H         -0.956774   -5.842786   -6.529661 H        1 UNL1     0.0233
     93 H         -0.589706   -5.519258   -8.210493 H        1 UNL1     0.0233
     94 H         2.192563   -4.398703   -7.732167 H        1 UNL1     0.0233
     95 H         1.114637   -3.326179   -8.638864 H        1 UNL1     0.0233
     96 H         1.942642   -2.72898   -7.182241 H        1 UNL1     0.0233
     97 H         -8.022821   -5.332455   3.011159 H        1 UNL1     0.0280
     98 H         -9.430516   -5.630386   2.02789 H        1 UNL1     0.0280
     99 H         -8.104457   -6.830341   2.065379 H        1 UNL1     0.0280
     100 H         -8.700695   -6.698761   -1.674593 H        1 UNL1     0.2922
     101 H         -5.42495   2.558951   -1.232956 H        1 UNL1     0.0236
     102 H         -3.813946   3.359085   -1.407642 H        1 UNL1     0.0236
     103 H         -4.358627   2.748125   0.123876 H        1 UNL1     0.0236
     104 H         -0.618312   2.169246   -1.598465 H        1 UNL1     0.2098
     105 H         1.158991   1.286191   0.115067 H        1 UNL1     0.0234
     106 H         0.685601   0.286683   1.517915 H        1 UNL1     0.0234
     107 H         0.0   -0.0   0.0 H        1 UNL1     0.0234
     108 H         -2.927605   1.26321   1.991166 H        1 UNL1     0.2098
     109 H         0.579231   -1.847935   1.426134 H        1 UNL1     0.0234
     110 H         -0.821002   -2.830876   1.960901 H        1 UNL1     0.0234
     111 H         -1.055032   -1.220433   1.377339 H        1 UNL1     0.0234
     112 H         2.88533   -2.900294   2.581642 H        1 UNL1     0.0342
     113 H         2.772272   -1.547882   1.399932 H        1 UNL1     0.0342
     114 H         4.316428   -1.943577   2.159524 H        1 UNL1     0.0342
     115 H         -0.334718   0.983558   5.880241 H        1 UNL1     0.0234
     116 H         0.08636   2.680015   5.624283 H        1 UNL1     0.0234
     117 H         -1.546058   2.044662   5.332419 H        1 UNL1     0.0234
     118 H         -3.908464   -4.424915   3.618258 H        1 UNL1     0.0309
     119 H         -4.276327   -5.162078   2.027872 H        1 UNL1     0.0309
     120 H         -3.029718   -3.947928   2.212165 H        1 UNL1     0.0309
     121 H         -3.406862   0.612921   6.073849 H        1 UNL1     0.0524
     122 H         -3.875516   0.101322   4.447354 H        1 UNL1     0.0524
     123 H         -3.656655   -1.119448   5.726245 H        1 UNL1     0.0524
@<TRIPOS>BOND
     1     1     2    1
     2     1    42    1
     3     2     3    2
     4     3     4    1
     5     4     5    2
     6     5     7    1
     7     6    75    1
     8     6    76    1
     9     6    77    1
    10     7     9   am
    11     9    10    1
    12    10    11    2
    13    10    43    1
    14    11    14    1
    15    11    15    1
    16    12    13   ar
    17    12    27   ar
    18    12    43    1
    19    13    14    1
    20    13    30   ar
    21    14    17    2
    22    15    16    1
    23    16    17    1
    24    16    18    1
    25    16    22    1
    26    18    19    1
    27    19    20    1
    28    20    21    1
    29    21    22    1
    30    23    24    1
    31    23    88    1
    32    23    89    1
    33    24    25    1
    34    24    26    1
    35    24    90    1
    36    25    91    1
    37    25    92    1
    38    25    93    1
    39    26    94    1
    40    26    95    1
    41    26    96    1
    42    27    28   ar
    43    28    29   ar
    44    29    30   ar
    45    29    31    1
    46    30    33    1
    47    31    32    1
    48    32    33    1
    49    32    35    1
    50    34    97    1
    51    34    98    1
    52    34    99    1
    53    35    61    1
    54    36    37    1
    55    36    60    1
    56    37    38    1
    57    38    39    1
    58    39    40    1
    59    40    41    1
    60    41    42    1
    61    45   100    1
    62    47   101    1
    63    47   102    1
    64    47   103    1
    65    48   104    1
    66    49   105    1
    67    49   106    1
    68    49   107    1
    69    50   108    1
    70    51    59    1
    71    52   109    1
    72    52   110    1
    73    52   111    1
    74    53    54    1
    75    54    55    2
    76    54    56    1
    77    56   112    1
    78    56   113    1
    79    56   114    1
    80    57   115    1
    81    57   116    1
    82    57   117    1
    83    58   118    1
    84    58   119    1
    85    58   120    1
    86    59   121    1
    87    59   122    1
    88    59   123    1
    89    60    61    2
    90     1    47    1
    91     1    62    1
    92     2    63    1
    93     3    64    1
    94     4    65    1
    95     5     6    1
    96     7     8    2
    97     9    78    1
    98    15    79    1
    99    18    80    1
   100    18    81    1
   101    19    82    1
   102    19    83    1
   103    20    23    1
   104    21    84    1
   105    21    85    1
   106    22    86    1
   107    22    87    1
   108    27    45    1
   109    28    34    1
   110    32    58    1
   111    33    46    2
   112    36    51    1
   113    36    66    1
   114    37    52    1
   115    37    67    1
   116    38    53    1
   117    38    68    1
   118    42    48    1
   119    42    72    1
   120    43    44    2
   121    60    73    1
   122    61    74    1
   123    39    69    1
   124    39    57    1
   125    40    70    1
   126    40    50    1
   127    41    71    1
   128    41    49    1
