@<TRIPOS>MOLECULE
*****
 123 128 0 0 0
SMALL
GASTEIGER

@<TRIPOS>ATOM
     1 C         2.258967   -3.357487   -1.263075 C.3        1 UNL1     0.0009
     2 C         3.284875   -4.490403   -0.213765 C.2        1 UNL1     -0.0787
     3 C         4.579254   -4.948417   0.245422 C.2        1 UNL1     -0.0649
     4 C         4.911661   -6.088391   1.452203 C.2        1 UNL1     -0.0542
     5 C         5.891191   -6.572348   2.354082 C.2        1 UNL1     0.0115
     6 C         7.393306   -6.48883   2.741379 C.3        1 UNL1     -0.0348
     7 C         5.424665   -7.475811   3.596296 C.2        1 UNL1     0.2441
     8 O         5.546134   -8.692921   3.616626 O.2        1 UNL1     -0.2702
     9 N         5.109068   -6.756451   4.762088 N.am        1 UNL1     -0.2772
     10 C         3.785981   -6.378807   4.749926 C.2        1 UNL1     0.1049
     11 C         3.500264   -5.280896   4.073776 C.2        1 UNL1     0.0801
     12 C         1.4753   -7.259204   4.371785 C.ar        1 UNL1     0.0753
     13 C         1.285837   -6.15663   3.479013 C.ar        1 UNL1     0.0305
     14 C         2.24774   -5.059329   3.403352 C.2        1 UNL1     0.0924
     15 N         4.317282   -4.344376   3.561976 N.pl3        1 UNL1     -0.3170
     16 C         3.498603   -3.26769   3.071298 C.3        1 UNL1     0.1275
     17 N         2.186375   -3.92274   2.715364 N.2        1 UNL1     -0.2557
     18 C         3.205935   -2.347613   4.252613 C.3        1 UNL1     0.0016
     19 C         4.526182   -1.904621   4.862774 C.3        1 UNL1     0.0026
     20 N         5.305212   -1.216177   3.842879 N.3        1 UNL1     -0.3018
     21 C         5.585216   -2.001362   2.638947 C.3        1 UNL1     0.0026
     22 C         4.245194   -2.431963   2.039933 C.3        1 UNL1     0.0016
     23 C         6.439016   -0.497199   4.388958 C.3        1 UNL1     0.0012
     24 C         6.227883   -0.214529   5.884711 C.3        1 UNL1     -0.0339
     25 C         7.492343   -0.529982   6.700606 C.3        1 UNL1     -0.0615
     26 C         5.777516   1.222116   6.08471 C.3        1 UNL1     -0.0615
     27 C         0.497371   -8.238921   4.526475 C.ar        1 UNL1     0.1347
     28 C         -0.722379   -8.202199   3.874624 C.ar        1 UNL1     0.0342
     29 C         -0.866898   -7.133964   2.964046 C.ar        1 UNL1     0.1435
     30 C         0.118711   -6.165044   2.771722 C.ar        1 UNL1     0.0774
     31 O         -2.03865   -6.89827   2.334401 O.3        1 UNL1     -0.4436
     32 C         -1.950301   -5.531771   1.903415 C.3        1 UNL1     0.3143
     33 C         -0.46617   -5.235271   1.828216 C.2        1 UNL1     0.2504
     34 C         -1.910443   -9.072214   4.177411 C.3        1 UNL1     -0.0327
     35 O         -2.455658   -5.474098   0.56381 O.2        1 UNL1     -0.4528
     36 C         -3.94768   -2.006944   0.162803 C.3        1 UNL1     0.0854
     37 C         -3.262427   -0.599252   0.353465 C.3        1 UNL1     0.0236
     38 C         -3.371239   0.382102   -0.910199 C.3        1 UNL1     0.1131
     39 C         -2.956075   -0.137138   -2.345573 C.3        1 UNL1     0.0200
     40 C         -1.568943   -1.041096   -2.548457 C.3        1 UNL1     0.0661
     41 C         -0.029447   -0.645249   -1.956115 C.3        1 UNL1     0.0091
     42 C         1.340507   -1.724651   -1.387326 C.3        1 UNL1     0.0661
     43 C         2.710157   -7.277252   5.194623 C.2        1 UNL1     0.2131
     44 O         2.817558   -7.903166   6.233581 O.2        1 UNL1     -0.2851
     45 O         0.779545   -9.302825   5.380831 O.3        1 UNL1     -0.5056
     46 O         0.106692   -4.428683   1.130292 O.2        1 UNL1     -0.2836
     47 C         2.314657   -3.801433   -2.749611 C.3        1 UNL1     -0.0566
     48 O         2.379426   -1.010421   -2.16812 O.3        1 UNL1     -0.3909
     49 C         -0.168829   0.464325   -0.937826 C.3        1 UNL1     -0.0577
     50 O         -1.829917   -2.413929   -2.336457 O.3        1 UNL1     -0.3910
     51 O         -4.41272   -2.294804   -1.136545 O.3        1 UNL1     -0.3753
     52 C         -1.965324   -0.696327   1.221251 C.3        1 UNL1     -0.0564
     53 O         -3.033901   1.809613   -0.592802 O.3        1 UNL1     -0.4608
     54 C         -2.360113   2.670129   -1.419514 C.2        1 UNL1     0.3042
     55 O         -2.774241   3.726373   -1.895627 O.2        1 UNL1     -0.2512
     56 C         -0.943681   2.253066   -1.696091 C.3        1 UNL1     0.0332
     57 C         -4.28563   -0.637052   -3.080791 C.3        1 UNL1     -0.0567
     58 C         -2.573429   -4.676327   3.031003 C.3        1 UNL1     0.0210
     59 C         -5.832024   -2.279863   -1.282207 C.3        1 UNL1     0.0372
     60 C         -3.124401   -3.170345   0.591606 C.2        1 UNL1     -0.0208
     61 C         -2.900909   -4.339672   -0.009617 C.2        1 UNL1     0.0882
     62 H         1.356227   -3.809749   -0.83502 H        1 UNL1     0.0365
     63 H         2.508845   -5.124453   0.220088 H        1 UNL1     0.0576
     64 H         5.503027   -4.449761   -0.056396 H        1 UNL1     0.0615
     65 H         3.948498   -6.577575   1.621015 H        1 UNL1     0.0622
     66 H         -4.814392   -1.98579   0.838383 H        1 UNL1     0.0645
     67 H         -3.906861   -0.084557   1.087191 H        1 UNL1     0.0362
     68 H         -4.463796   0.50939   -0.950706 H        1 UNL1     0.0741
     69 H         -2.778876   0.716181   -2.986553 H        1 UNL1     0.0359
     70 H         -1.440464   -0.949926   -3.644013 H        1 UNL1     0.0600
     71 H         0.37592   -0.09195   -2.825882 H        1 UNL1     0.0348
     72 H         0.686565   -2.362074   -1.999999 H        1 UNL1     0.0602
     73 H         -2.78567   -3.011233   1.585182 H        1 UNL1     0.0628
     74 H         -3.163729   -4.561101   -1.044572 H        1 UNL1     0.1022
     75 H         7.527573   -5.866539   3.658854 H        1 UNL1     0.0279
     76 H         7.875259   -7.423382   3.019594 H        1 UNL1     0.0279
     77 H         7.990751   -5.926655   2.008768 H        1 UNL1     0.0279
     78 H         5.669521   -5.907726   4.802545 H        1 UNL1     0.1553
     79 H         5.268144   -4.214388   3.85506 H        1 UNL1     0.1484
     80 H         2.619391   -1.49015   3.901203 H        1 UNL1     0.0317
     81 H         2.5948   -2.858441   5.004425 H        1 UNL1     0.0317
     82 H         5.085852   -2.753439   5.282523 H        1 UNL1     0.0428
     83 H         4.294257   -1.251032   5.70425 H        1 UNL1     0.0428
     84 H         6.101856   -1.436181   1.856986 H        1 UNL1     0.0428
     85 H         6.258458   -2.84419   2.848 H        1 UNL1     0.0428
     86 H         4.482669   -2.886396   1.09596 H        1 UNL1     0.0317
     87 H         3.660338   -1.548455   1.756292 H        1 UNL1     0.0317
     88 H         7.330431   -1.127802   4.274878 H        1 UNL1     0.0429
     89 H         6.628056   0.430427   3.833488 H        1 UNL1     0.0429
     90 H         5.407549   -0.840054   6.256171 H        1 UNL1     0.0308
     91 H         8.390981   -0.474318   6.078951 H        1 UNL1     0.0233
     92 H         7.593311   0.162295   7.539753 H        1 UNL1     0.0233
     93 H         7.46834   -1.536444   7.135685 H        1 UNL1     0.0233
     94 H         5.690339   1.445292   7.153555 H        1 UNL1     0.0233
     95 H         6.513962   1.907646   5.656156 H        1 UNL1     0.0233
     96 H         4.80803   1.40571   5.61316 H        1 UNL1     0.0233
     97 H         -1.617633   -10.030359   4.596279 H        1 UNL1     0.0280
     98 H         -2.58153   -8.613981   4.915599 H        1 UNL1     0.0280
     99 H         -2.476939   -9.25894   3.25042 H        1 UNL1     0.0280
     100 H         1.623994   -9.696941   5.249676 H        1 UNL1     0.2922
     101 H         1.355985   -4.229619   -3.041608 H        1 UNL1     0.0236
     102 H         3.145186   -4.472638   -2.965687 H        1 UNL1     0.0236
     103 H         2.458994   -2.947075   -3.431838 H        1 UNL1     0.0236
     104 H         1.960228   -0.221757   -2.564671 H        1 UNL1     0.2098
     105 H         0.555727   1.267429   -1.046699 H        1 UNL1     0.0234
     106 H         -1.174847   0.873208   -0.844715 H        1 UNL1     0.0234
     107 H         0.0   0.0   0.0 H        1 UNL1     0.0234
     108 H         -0.996908   -2.89638   -2.501092 H        1 UNL1     0.2098
     109 H         -2.168486   -1.077331   2.231832 H        1 UNL1     0.0234
     110 H         -1.178855   -1.298599   0.753835 H        1 UNL1     0.0234
     111 H         -1.498504   0.287537   1.362801 H        1 UNL1     0.0234
     112 H         -0.719432   2.379456   -2.759616 H        1 UNL1     0.0342
     113 H         -0.229083   2.795591   -1.078953 H        1 UNL1     0.0342
     114 H         -0.847386   1.185199   -1.456192 H        1 UNL1     0.0342
     115 H         -4.250402   -0.446773   -4.162336 H        1 UNL1     0.0234
     116 H         -4.497768   -1.698885   -2.940939 H        1 UNL1     0.0234
     117 H         -5.187183   -0.068951   -2.79373 H        1 UNL1     0.0234
     118 H         -3.671517   -4.783019   3.073729 H        1 UNL1     0.0309
     119 H         -2.15368   -4.894932   4.018032 H        1 UNL1     0.0309
     120 H         -2.430071   -3.602001   2.871691 H        1 UNL1     0.0309
     121 H         -6.138325   -1.243373   -1.420858 H        1 UNL1     0.0524
     122 H         -6.167801   -2.846405   -2.166697 H        1 UNL1     0.0524
     123 H         -6.305095   -2.695301   -0.396934 H        1 UNL1     0.0524
@<TRIPOS>BOND
     1     1     2    1
     2     1    42    1
     3     2     3    2
     4     3     4    1
     5     4     5    2
     6     5     7    1
     7     6    75    1
     8     6    76    1
     9     6    77    1
    10     7     9   am
    11     9    10    1
    12    10    11    2
    13    10    43    1
    14    11    14    1
    15    11    15    1
    16    12    13   ar
    17    12    27   ar
    18    12    43    1
    19    13    14    1
    20    13    30   ar
    21    14    17    2
    22    15    16    1
    23    16    17    1
    24    16    18    1
    25    16    22    1
    26    18    19    1
    27    19    20    1
    28    20    21    1
    29    21    22    1
    30    23    24    1
    31    23    88    1
    32    23    89    1
    33    24    25    1
    34    24    26    1
    35    24    90    1
    36    25    91    1
    37    25    92    1
    38    25    93    1
    39    26    94    1
    40    26    95    1
    41    26    96    1
    42    27    28   ar
    43    28    29   ar
    44    29    30   ar
    45    29    31    1
    46    30    33    1
    47    31    32    1
    48    32    33    1
    49    32    35    1
    50    34    97    1
    51    34    98    1
    52    34    99    1
    53    35    61    1
    54    36    37    1
    55    36    60    1
    56    37    38    1
    57    38    39    1
    58    39    40    1
    59    40    41    1
    60    41    42    1
    61    45   100    1
    62    47   101    1
    63    47   102    1
    64    47   103    1
    65    48   104    1
    66    49   105    1
    67    49   106    1
    68    49   107    1
    69    50   108    1
    70    51    59    1
    71    52   109    1
    72    52   110    1
    73    52   111    1
    74    53    54    1
    75    54    55    2
    76    54    56    1
    77    56   112    1
    78    56   113    1
    79    56   114    1
    80    57   115    1
    81    57   116    1
    82    57   117    1
    83    58   118    1
    84    58   119    1
    85    58   120    1
    86    59   121    1
    87    59   122    1
    88    59   123    1
    89    60    61    2
    90     1    47    1
    91     1    62    1
    92     2    63    1
    93     3    64    1
    94     4    65    1
    95     5     6    1
    96     7     8    2
    97     9    78    1
    98    15    79    1
    99    18    80    1
   100    18    81    1
   101    19    82    1
   102    19    83    1
   103    20    23    1
   104    21    84    1
   105    21    85    1
   106    22    86    1
   107    22    87    1
   108    27    45    1
   109    28    34    1
   110    32    58    1
   111    33    46    2
   112    36    51    1
   113    36    66    1
   114    37    52    1
   115    37    67    1
   116    38    53    1
   117    38    68    1
   118    42    48    1
   119    42    72    1
   120    43    44    2
   121    60    73    1
   122    61    74    1
   123    39    69    1
   124    39    57    1
   125    40    70    1
   126    40    50    1
   127    41    71    1
   128    41    49    1
