@<TRIPOS>MOLECULE
*****
 123 128 0 0 0
SMALL
GASTEIGER

@<TRIPOS>ATOM
     1 C         5.165649   1.751085   0.500277 C.3        1 UNL1     0.0009
     2 C         6.602426   2.560283   -0.347016 C.2        1 UNL1     -0.0787
     3 C         7.885228   2.4647   -1.011344 C.2        1 UNL1     -0.0649
     4 C         8.762148   3.702102   -1.763809 C.2        1 UNL1     -0.0542
     5 C         9.782972   3.997498   -2.700686 C.2        1 UNL1     0.0115
     6 C         10.912953   3.374812   -3.565976 C.3        1 UNL1     -0.0348
     7 C         9.877313   5.481871   -3.304611 C.2        1 UNL1     0.2441
     8 O         10.699775   6.303851   -2.924571 O.2        1 UNL1     -0.2702
     9 N         9.128274   5.689907   -4.475856 N.am        1 UNL1     -0.2772
     10 C         7.844727   6.074567   -4.163022 C.2        1 UNL1     0.1049
     11 C         6.999724   5.101684   -3.873732 C.2        1 UNL1     0.0801
     12 C         6.542741   7.677355   -2.751201 C.ar        1 UNL1     0.0753
     13 C         5.78446   6.547812   -2.30651 C.ar        1 UNL1     0.0305
     14 C         5.903703   5.243323   -2.95392 C.2        1 UNL1     0.0924
     15 N         7.124092   3.773116   -4.034877 N.pl3        1 UNL1     -0.3170
     16 C         5.854553   3.171942   -3.723243 C.3        1 UNL1     0.1275
     17 N         5.215845   4.124804   -2.742513 N.2        1 UNL1     -0.2557
     18 C         5.003173   3.232116   -4.987851 C.3        1 UNL1     0.0016
     19 C         5.760226   2.550781   -6.116675 C.3        1 UNL1     0.0026
     20 N         6.03151   1.172357   -5.732775 N.3        1 UNL1     -0.3018
     21 C         6.793547   1.010796   -4.492788 C.3        1 UNL1     0.0026
     22 C         6.012632   1.698544   -3.371597 C.3        1 UNL1     0.0016
     23 C         6.478324   0.355183   -6.843283 C.3        1 UNL1     0.0012
     24 C         5.323257   0.102346   -7.824939 C.3        1 UNL1     -0.0339
     25 C         5.34468   1.106442   -8.989151 C.3        1 UNL1     -0.0615
     26 C         5.367442   -1.331857   -8.322823 C.3        1 UNL1     -0.0615
     27 C         6.335943   8.943912   -2.209733 C.ar        1 UNL1     0.1347
     28 C         5.375404   9.210746   -1.250455 C.ar        1 UNL1     0.0342
     29 C         4.674611   8.074715   -0.792758 C.ar        1 UNL1     0.1435
     30 C         4.896167   6.793786   -1.300057 C.ar        1 UNL1     0.0774
     31 O         3.632452   8.18565   0.059653 O.3        1 UNL1     -0.4436
     32 C         2.912389   6.952226   -0.085426 C.3        1 UNL1     0.3143
     33 C         3.927492   5.961188   -0.617989 C.2        1 UNL1     0.2504
     34 C         4.926434   10.575595   -0.80806 C.3        1 UNL1     -0.0327
     35 O         2.550669   6.512925   1.22965 O.2        1 UNL1     -0.4528
     36 C         -0.689632   4.577614   0.825788 C.3        1 UNL1     0.0854
     37 C         -0.992378   3.318161   -0.074016 C.3        1 UNL1     0.0236
     38 C         -1.592411   2.055115   0.711108 C.3        1 UNL1     0.1131
     39 C         -0.867606   1.522877   2.012511 C.3        1 UNL1     0.0200
     40 C         0.793704   1.379203   2.05545 C.3        1 UNL1     0.0661
     41 C         1.755383   0.613426   0.886531 C.3        1 UNL1     0.0091
     42 C         3.463225   0.978908   0.325193 C.3        1 UNL1     0.0661
     43 C         7.494379   7.472615   -3.871347 C.2        1 UNL1     0.2131
     44 O         7.894079   8.372344   -4.587911 O.2        1 UNL1     -0.2851
     45 O         7.147552   9.980722   -2.665532 O.3        1 UNL1     -0.5056
     46 O         3.94473   4.757459   -0.489177 O.2        1 UNL1     -0.2836
     47 C         5.560778   1.319698   1.938249 C.3        1 UNL1     -0.0566
     48 O         3.913338   -0.431806   0.405195 O.3        1 UNL1     -0.3909
     49 C         0.922964   0.381908   -0.354828 C.3        1 UNL1     -0.0577
     50 O         1.392005   2.597115   2.450985 O.3        1 UNL1     -0.3910
     51 O         -0.815177   4.385502   2.216746 O.3        1 UNL1     -0.3753
     52 C         0.053652   3.160807   -1.22554 C.3        1 UNL1     -0.0564
     53 O         -2.192715   1.016913   -0.191166 O.3        1 UNL1     -0.4608
     54 C         -2.413896   -0.293886   0.141722 C.2        1 UNL1     0.3042
     55 O         -1.840028   -1.285467   -0.30692 O.2        1 UNL1     -0.2512
     56 C         -3.444363   -0.474971   1.21971 C.3        1 UNL1     0.0332
     57 C         -1.590934   2.188953   3.273985 C.3        1 UNL1     -0.0567
     58 C         1.838215   7.197848   -1.170484 C.3        1 UNL1     0.0210
     59 C         -1.169251   5.554809   2.95378 C.3        1 UNL1     0.0372
     60 C         0.638905   5.208625   0.597808 C.2        1 UNL1     -0.0208
     61 C         1.550285   5.64349   1.469027 C.2        1 UNL1     0.0882
     62 H         4.688477   2.734558   0.588588 H        1 UNL1     0.0365
     63 H         6.334824   3.613597   -0.240302 H        1 UNL1     0.0576
     64 H         8.344275   1.498749   -1.233427 H        1 UNL1     0.0615
     65 H         8.273582   4.61636   -1.416075 H        1 UNL1     0.0622
     66 H         -1.434779   5.323783   0.515895 H        1 UNL1     0.0645
     67 H         -1.857551   3.627523   -0.685841 H        1 UNL1     0.0362
     68 H         -2.540412   2.490311   1.062423 H        1 UNL1     0.0741
     69 H         -1.198185   0.511074   2.205856 H        1 UNL1     0.0359
     70 H         0.905191   0.717558   2.935709 H        1 UNL1     0.0600
     71 H         1.799643   -0.408387   1.31185 H        1 UNL1     0.0348
     72 H         3.355599   1.465381   1.305538 H        1 UNL1     0.0602
     73 H         0.757814   5.407711   -0.438277 H        1 UNL1     0.0628
     74 H         1.531702   5.431052   2.538495 H        1 UNL1     0.1022
     75 H         10.958538   2.269336   -3.414716 H        1 UNL1     0.0279
     76 H         10.800517   3.459237   -4.644539 H        1 UNL1     0.0279
     77 H         11.91728   3.680149   -3.237651 H        1 UNL1     0.0279
     78 H         9.067916   4.820748   -5.002161 H        1 UNL1     0.1553
     79 H         7.790599   3.346911   -4.652169 H        1 UNL1     0.1484
     80 H         4.042233   2.739747   -4.795673 H        1 UNL1     0.0317
     81 H         4.775682   4.269047   -5.257428 H        1 UNL1     0.0317
     82 H         6.690566   3.083571   -6.362675 H        1 UNL1     0.0428
     83 H         5.136078   2.606658   -7.009069 H        1 UNL1     0.0428
     84 H         6.914711   -0.03252   -4.185182 H        1 UNL1     0.0428
     85 H         7.823334   1.380196   -4.594769 H        1 UNL1     0.0428
     86 H         6.528259   1.447295   -2.463307 H        1 UNL1     0.0317
     87 H         5.033595   1.219564   -3.248463 H        1 UNL1     0.0317
     88 H         7.272197   0.900138   -7.370621 H        1 UNL1     0.0429
     89 H         6.914427   -0.589306   -6.493243 H        1 UNL1     0.0429
     90 H         4.370311   0.205338   -7.292492 H        1 UNL1     0.0308
     91 H         6.29346   1.065244   -9.532494 H        1 UNL1     0.0233
     92 H         4.524716   0.90994   -9.683885 H        1 UNL1     0.0233
     93 H         5.216869   2.141637   -8.650228 H        1 UNL1     0.0233
     94 H         4.671175   -1.463304   -9.158149 H        1 UNL1     0.0233
     95 H         6.372474   -1.572355   -8.68064 H        1 UNL1     0.0233
     96 H         5.095969   -2.0372   -7.532404 H        1 UNL1     0.0233
     97 H         4.132268   10.523684   -0.069253 H        1 UNL1     0.0280
     98 H         5.737958   11.145817   -0.33739 H        1 UNL1     0.0280
     99 H         4.553138   11.141114   -1.677506 H        1 UNL1     0.0280
     100 H         8.071188   9.813113   -2.599005 H        1 UNL1     0.2922
     101 H         4.697867   0.88423   2.441646 H        1 UNL1     0.0236
     102 H         6.009926   2.124622   2.519065 H        1 UNL1     0.0236
     103 H         6.317964   0.517913   1.936746 H        1 UNL1     0.0236
     104 H         4.331974   -0.558732   1.27904 H        1 UNL1     0.2098
     105 H         0.712488   1.280991   -0.928553 H        1 UNL1     0.0234
     106 H         1.292382   -0.406652   -1.010291 H        1 UNL1     0.0234
     107 H         0.0   -0.0   0.0 H        1 UNL1     0.0234
     108 H         1.191121   3.256993   1.759627 H        1 UNL1     0.2098
     109 H         1.078071   3.047132   -0.844283 H        1 UNL1     0.0234
     110 H         -0.177426   2.335026   -1.907032 H        1 UNL1     0.0234
     111 H         0.075143   4.04503   -1.876412 H        1 UNL1     0.0234
     112 H         -3.568738   -1.53943   1.440627 H        1 UNL1     0.0342
     113 H         -3.19737   0.084766   2.120561 H        1 UNL1     0.0342
     114 H         -4.404264   -0.094561   0.844152 H        1 UNL1     0.0342
     115 H         -2.654842   1.919201   3.324189 H        1 UNL1     0.0234
     116 H         -1.140234   1.927373   4.233409 H        1 UNL1     0.0234
     117 H         -1.652615   3.289273   3.215401 H        1 UNL1     0.0234
     118 H         0.936081   7.68303   -0.758466 H        1 UNL1     0.0309
     119 H         2.207908   7.787639   -2.015277 H        1 UNL1     0.0309
     120 H         1.451242   6.266129   -1.597401 H        1 UNL1     0.0309
     121 H         -0.371481   6.284465   2.817686 H        1 UNL1     0.0524
     122 H         -2.103658   6.01257   2.588573 H        1 UNL1     0.0524
     123 H         -1.282314   5.315155   4.007287 H        1 UNL1     0.0524
@<TRIPOS>BOND
     1     1     2    1
     2     1    42    1
     3     2     3    2
     4     3     4    1
     5     4     5    2
     6     5     7    1
     7     6    75    1
     8     6    76    1
     9     6    77    1
    10     7     9   am
    11     9    10    1
    12    10    11    2
    13    10    43    1
    14    11    14    1
    15    11    15    1
    16    12    13   ar
    17    12    27   ar
    18    12    43    1
    19    13    14    1
    20    13    30   ar
    21    14    17    2
    22    15    16    1
    23    16    17    1
    24    16    18    1
    25    16    22    1
    26    18    19    1
    27    19    20    1
    28    20    21    1
    29    21    22    1
    30    23    24    1
    31    23    88    1
    32    23    89    1
    33    24    25    1
    34    24    26    1
    35    24    90    1
    36    25    91    1
    37    25    92    1
    38    25    93    1
    39    26    94    1
    40    26    95    1
    41    26    96    1
    42    27    28   ar
    43    28    29   ar
    44    29    30   ar
    45    29    31    1
    46    30    33    1
    47    31    32    1
    48    32    33    1
    49    32    35    1
    50    34    97    1
    51    34    98    1
    52    34    99    1
    53    35    61    1
    54    36    37    1
    55    36    60    1
    56    37    38    1
    57    38    39    1
    58    39    40    1
    59    40    41    1
    60    41    42    1
    61    45   100    1
    62    47   101    1
    63    47   102    1
    64    47   103    1
    65    48   104    1
    66    49   105    1
    67    49   106    1
    68    49   107    1
    69    50   108    1
    70    51    59    1
    71    52   109    1
    72    52   110    1
    73    52   111    1
    74    53    54    1
    75    54    55    2
    76    54    56    1
    77    56   112    1
    78    56   113    1
    79    56   114    1
    80    57   115    1
    81    57   116    1
    82    57   117    1
    83    58   118    1
    84    58   119    1
    85    58   120    1
    86    59   121    1
    87    59   122    1
    88    59   123    1
    89    60    61    2
    90     1    47    1
    91     1    62    1
    92     2    63    1
    93     3    64    1
    94     4    65    1
    95     5     6    1
    96     7     8    2
    97     9    78    1
    98    15    79    1
    99    18    80    1
   100    18    81    1
   101    19    82    1
   102    19    83    1
   103    20    23    1
   104    21    84    1
   105    21    85    1
   106    22    86    1
   107    22    87    1
   108    27    45    1
   109    28    34    1
   110    32    58    1
   111    33    46    2
   112    36    51    1
   113    36    66    1
   114    37    52    1
   115    37    67    1
   116    38    53    1
   117    38    68    1
   118    42    48    1
   119    42    72    1
   120    43    44    2
   121    60    73    1
   122    61    74    1
   123    39    69    1
   124    39    57    1
   125    40    70    1
   126    40    50    1
   127    41    71    1
   128    41    49    1
