@<TRIPOS>MOLECULE
*****
 123 128 0 0 0
SMALL
GASTEIGER

@<TRIPOS>ATOM
     1 C         5.076898   2.014851   -0.406281 C.3        1 UNL1     0.0009
     2 C         6.63284   2.453932   0.501073 C.2        1 UNL1     -0.0787
     3 C         7.494678   3.445203   1.109894 C.2        1 UNL1     -0.0649
     4 C         8.913486   3.186742   1.996764 C.2        1 UNL1     -0.0542
     5 C         9.814252   3.747443   2.935547 C.2        1 UNL1     0.0115
     6 C         10.203475   5.055977   3.676876 C.3        1 UNL1     -0.0348
     7 C         10.813147   2.774318   3.730673 C.2        1 UNL1     0.2441
     8 O         11.995708   2.654185   3.441463 O.2        1 UNL1     -0.2702
     9 N         10.304825   2.269068   4.940004 N.am        1 UNL1     -0.2772
     10 C         9.607427   1.103831   4.718235 C.2        1 UNL1     0.1049
     11 C         8.354231   1.241447   4.324811 C.2        1 UNL1     0.0801
     12 C         9.764112   -1.114153   3.572229 C.ar        1 UNL1     0.0753
     13 C         8.48463   -0.821512   3.001355 C.ar        1 UNL1     0.0305
     14 C         7.680569   0.307494   3.463829 C.2        1 UNL1     0.0924
     15 N         7.570885   2.333412   4.302251 N.pl3        1 UNL1     -0.3170
     16 C         6.241041   1.912966   3.948709 C.3        1 UNL1     0.1275
     17 N         6.445839   0.666036   3.123514 N.2        1 UNL1     -0.2557
     18 C         5.552759   1.4622   5.233536 C.3        1 UNL1     0.0016
     19 C         5.604495   2.601849   6.23858 C.3        1 UNL1     0.0026
     20 N         4.936054   3.761824   5.665279 N.3        1 UNL1     -0.3018
     21 C         5.489101   4.232664   4.393738 C.3        1 UNL1     0.0026
     22 C         5.423018   3.073517   3.397793 C.3        1 UNL1     0.0016
     23 C         4.666162   4.797411   6.642704 C.3        1 UNL1     0.0012
     24 C         3.563366   4.347289   7.613779 C.3        1 UNL1     -0.0339
     25 C         4.156455   3.743993   8.897654 C.3        1 UNL1     -0.0615
     26 C         2.63308   5.508243   7.919614 C.3        1 UNL1     -0.0615
     27 C         10.470229   -2.259493   3.212071 C.ar        1 UNL1     0.1347
     28 C         9.983161   -3.202843   2.324994 C.ar        1 UNL1     0.0342
     29 C         8.743728   -2.869268   1.738736 C.ar        1 UNL1     0.1435
     30 C         8.041668   -1.70764   2.062698 C.ar        1 UNL1     0.0774
     31 O         8.086201   -3.736946   0.938861 O.3        1 UNL1     -0.4436
     32 C         6.728352   -3.270988   0.93711 C.3        1 UNL1     0.3143
     33 C         6.81287   -1.802829   1.302591 C.2        1 UNL1     0.2504
     34 C         10.563888   -4.568244   2.083049 C.3        1 UNL1     -0.0327
     35 O         6.25674   -3.338012   -0.414312 O.2        1 UNL1     -0.4528
     36 C         2.520776   -3.968108   -0.182702 C.3        1 UNL1     0.0854
     37 C         1.410549   -3.11881   0.547785 C.3        1 UNL1     0.0236
     38 C         0.18628   -2.663777   -0.382728 C.3        1 UNL1     0.1131
     39 C         0.473575   -1.948154   -1.763892 C.3        1 UNL1     0.0200
     40 C         1.637204   -0.757969   -1.872819 C.3        1 UNL1     0.0661
     41 C         1.785698   0.583519   -0.845215 C.3        1 UNL1     0.0091
     42 C         3.276077   1.496858   -0.288451 C.3        1 UNL1     0.0661
     43 C         10.274186   -0.20365   4.62725 C.2        1 UNL1     0.2131
     44 O         11.114824   -0.527081   5.446675 O.2        1 UNL1     -0.2851
     45 O         11.728756   -2.446689   3.779967 O.3        1 UNL1     -0.5056
     46 O         6.049457   -0.908968   1.012648 O.2        1 UNL1     -0.2836
     47 C         5.19017   2.422907   -1.899814 C.3        1 UNL1     -0.0566
     48 O         2.701268   2.834527   -0.570147 O.3        1 UNL1     -0.3909
     49 C         0.923053   0.359996   0.376823 C.3        1 UNL1     -0.0577
     50 O         2.909759   -1.322166   -2.117783 O.3        1 UNL1     -0.3910
     51 O         2.393792   -4.073957   -1.582739 O.3        1 UNL1     -0.3753
     52 C         2.020704   -2.178067   1.637585 C.3        1 UNL1     -0.0564
     53 O         -1.004503   -2.174145   0.38839 O.3        1 UNL1     -0.4608
     54 C         -2.003896   -1.380713   -0.111218 C.2        1 UNL1     0.3042
     55 O         -2.247099   -0.211269   0.183895 O.2        1 UNL1     -0.2512
     56 C         -2.827946   -2.049461   -1.174436 C.3        1 UNL1     0.0332
     57 C         0.446233   -3.07025   -2.903334 C.3        1 UNL1     -0.0567
     58 C         6.004803   -4.027585   2.07534 C.3        1 UNL1     0.0210
     59 C         2.938367   -5.266681   -2.145511 C.3        1 UNL1     0.0372
     60 C         3.920229   -3.541317   0.09032 C.2        1 UNL1     -0.0208
     61 C         4.950342   -3.373356   -0.739983 C.2        1 UNL1     0.0882
     62 H         5.363901   0.957996   -0.347985 H        1 UNL1     0.0365
     63 H         7.12487   1.480032   0.544593 H        1 UNL1     0.0576
     64 H         7.196462   4.493169   1.186972 H        1 UNL1     0.0615
     65 H         9.164109   2.142925   1.789113 H        1 UNL1     0.0622
     66 H         2.424011   -4.975656   0.245703 H        1 UNL1     0.0645
     67 H         0.918063   -3.842861   1.219922 H        1 UNL1     0.0362
     68 H         -0.222213   -3.651551   -0.645325 H        1 UNL1     0.0741
     69 H         -0.422983   -1.433042   -2.082091 H        1 UNL1     0.0359
     70 H         1.348795   -0.296979   -2.836857 H        1 UNL1     0.0600
     71 H         1.181179   1.323777   -1.405155 H        1 UNL1     0.0348
     72 H         3.577699   0.945775   -1.191029 H        1 UNL1     0.0602
     73 H         4.070506   -3.487609   1.139977 H        1 UNL1     0.0628
     74 H         4.869347   -3.355397   -1.827344 H        1 UNL1     0.1022
     75 H         9.527049   5.89241   3.377107 H        1 UNL1     0.0279
     76 H         10.10144   5.048795   4.759745 H        1 UNL1     0.0279
     77 H         11.182956   5.446609   3.364265 H        1 UNL1     0.0279
     78 H         9.657169   2.941127   5.346151 H        1 UNL1     0.1553
     79 H         7.754882   3.162024   4.837489 H        1 UNL1     0.1484
     80 H         4.518901   1.177049   5.004203 H        1 UNL1     0.0317
     81 H         6.039205   0.571956   5.646438 H        1 UNL1     0.0317
     82 H         6.638005   2.843261   6.527527 H        1 UNL1     0.0428
     83 H         5.109909   2.258452   7.147707 H        1 UNL1     0.0428
     84 H         4.920749   5.053463   3.945322 H        1 UNL1     0.0428
     85 H         6.500784   4.643824   4.515243 H        1 UNL1     0.0428
     86 H         5.709306   3.48968   2.449724 H        1 UNL1     0.0317
     87 H         4.379607   2.77481   3.239162 H        1 UNL1     0.0317
     88 H         5.585728   4.974127   7.215823 H        1 UNL1     0.0429
     89 H         4.402915   5.745672   6.156622 H        1 UNL1     0.0429
     90 H         2.942773   3.586919   7.12499 H        1 UNL1     0.0308
     91 H         4.812106   4.457156   9.406205 H        1 UNL1     0.0233
     92 H         3.362664   3.435538   9.582023 H        1 UNL1     0.0233
     93 H         4.755207   2.846723   8.69957 H        1 UNL1     0.0233
     94 H         1.965913   5.249301   8.748875 H        1 UNL1     0.0233
     95 H         3.215099   6.385238   8.216421 H        1 UNL1     0.0233
     96 H         2.020694   5.768229   7.051652 H        1 UNL1     0.0233
     97 H         9.979811   -5.138362   1.366774 H        1 UNL1     0.0280
     98 H         11.580065   -4.518595   1.670526 H        1 UNL1     0.0280
     99 H         10.592636   -5.1303   3.030868 H        1 UNL1     0.0280
     100 H         12.321442   -1.724784   3.665079 H        1 UNL1     0.2922
     101 H         4.287619   2.123554   -2.432211 H        1 UNL1     0.0236
     102 H         6.092408   2.045606   -2.380017 H        1 UNL1     0.0236
     103 H         5.240473   3.517147   -2.027495 H        1 UNL1     0.0236
     104 H         2.996572   3.100396   -1.46294 H        1 UNL1     0.2098
     105 H         1.310945   -0.381393   1.070864 H        1 UNL1     0.0234
     106 H         0.645711   1.268745   0.910849 H        1 UNL1     0.0234
     107 H         -0.0   0.0   0.0 H        1 UNL1     0.0234
     108 H         3.142155   -1.863063   -1.338559 H        1 UNL1     0.2098
     109 H         2.741598   -1.464439   1.214786 H        1 UNL1     0.0234
     110 H         1.26185   -1.635603   2.211708 H        1 UNL1     0.0234
     111 H         2.574622   -2.745071   2.397604 H        1 UNL1     0.0234
     112 H         -3.602105   -1.363589   -1.531652 H        1 UNL1     0.0342
     113 H         -2.216227   -2.411898   -1.999228 H        1 UNL1     0.0342
     114 H         -3.328786   -2.917881   -0.724802 H        1 UNL1     0.0342
     115 H         -0.529692   -3.571886   -2.959188 H        1 UNL1     0.0234
     116 H         0.680179   -2.695043   -3.901601 H        1 UNL1     0.0234
     117 H         1.113346   -3.924503   -2.695599 H        1 UNL1     0.0234
     118 H         5.667608   -5.029894   1.758037 H        1 UNL1     0.0309
     119 H         6.612063   -4.124055   2.980952 H        1 UNL1     0.0309
     120 H         5.076372   -3.534714   2.383885 H        1 UNL1     0.0309
     121 H         4.007523   -5.272163   -1.935198 H        1 UNL1     0.0524
     122 H         2.506894   -6.17639   -1.695737 H        1 UNL1     0.0524
     123 H         2.767213   -5.288386   -3.218045 H        1 UNL1     0.0524
@<TRIPOS>BOND
     1     1     2    1
     2     1    42    1
     3     2     3    2
     4     3     4    1
     5     4     5    2
     6     5     7    1
     7     6    75    1
     8     6    76    1
     9     6    77    1
    10     7     9   am
    11     9    10    1
    12    10    11    2
    13    10    43    1
    14    11    14    1
    15    11    15    1
    16    12    13   ar
    17    12    27   ar
    18    12    43    1
    19    13    14    1
    20    13    30   ar
    21    14    17    2
    22    15    16    1
    23    16    17    1
    24    16    18    1
    25    16    22    1
    26    18    19    1
    27    19    20    1
    28    20    21    1
    29    21    22    1
    30    23    24    1
    31    23    88    1
    32    23    89    1
    33    24    25    1
    34    24    26    1
    35    24    90    1
    36    25    91    1
    37    25    92    1
    38    25    93    1
    39    26    94    1
    40    26    95    1
    41    26    96    1
    42    27    28   ar
    43    28    29   ar
    44    29    30   ar
    45    29    31    1
    46    30    33    1
    47    31    32    1
    48    32    33    1
    49    32    35    1
    50    34    97    1
    51    34    98    1
    52    34    99    1
    53    35    61    1
    54    36    37    1
    55    36    60    1
    56    37    38    1
    57    38    39    1
    58    39    40    1
    59    40    41    1
    60    41    42    1
    61    45   100    1
    62    47   101    1
    63    47   102    1
    64    47   103    1
    65    48   104    1
    66    49   105    1
    67    49   106    1
    68    49   107    1
    69    50   108    1
    70    51    59    1
    71    52   109    1
    72    52   110    1
    73    52   111    1
    74    53    54    1
    75    54    55    2
    76    54    56    1
    77    56   112    1
    78    56   113    1
    79    56   114    1
    80    57   115    1
    81    57   116    1
    82    57   117    1
    83    58   118    1
    84    58   119    1
    85    58   120    1
    86    59   121    1
    87    59   122    1
    88    59   123    1
    89    60    61    2
    90     1    47    1
    91     1    62    1
    92     2    63    1
    93     3    64    1
    94     4    65    1
    95     5     6    1
    96     7     8    2
    97     9    78    1
    98    15    79    1
    99    18    80    1
   100    18    81    1
   101    19    82    1
   102    19    83    1
   103    20    23    1
   104    21    84    1
   105    21    85    1
   106    22    86    1
   107    22    87    1
   108    27    45    1
   109    28    34    1
   110    32    58    1
   111    33    46    2
   112    36    51    1
   113    36    66    1
   114    37    52    1
   115    37    67    1
   116    38    53    1
   117    38    68    1
   118    42    48    1
   119    42    72    1
   120    43    44    2
   121    60    73    1
   122    61    74    1
   123    39    69    1
   124    39    57    1
   125    40    70    1
   126    40    50    1
   127    41    71    1
   128    41    49    1
