@<TRIPOS>MOLECULE
*****
 123 128 0 0 0
SMALL
GASTEIGER

@<TRIPOS>ATOM
     1 C         4.872677   2.401426   0.708471 C.3        1 UNL1     0.0009
     2 C         6.253312   3.338257   -0.099754 C.2        1 UNL1     -0.0787
     3 C         7.583071   3.371082   -0.671341 C.2        1 UNL1     -0.0649
     4 C         8.348596   4.663808   -1.451846 C.2        1 UNL1     -0.0542
     5 C         9.38955   5.032007   -2.339496 C.2        1 UNL1     0.0115
     6 C         10.649768   4.51072   -3.083428 C.3        1 UNL1     -0.0348
     7 C         9.338715   6.475368   -3.04029 C.2        1 UNL1     0.2441
     8 O         10.020118   7.420467   -2.667456 O.2        1 UNL1     -0.2702
     9 N         8.657179   6.509697   -4.269306 N.am        1 UNL1     -0.2772
     10 C         7.315745   6.740882   -4.068229 C.2        1 UNL1     0.1049
     11 C         6.582155   5.685208   -3.765537 C.2        1 UNL1     0.0801
     12 C         5.720933   8.243241   -2.861239 C.ar        1 UNL1     0.0753
     13 C         5.081627   7.053665   -2.387104 C.ar        1 UNL1     0.0305
     14 C         5.412595   5.738434   -2.930868 C.2        1 UNL1     0.0924
     15 N         6.88562   4.377115   -3.823244 N.pl3        1 UNL1     -0.3170
     16 C         5.683261   3.634733   -3.552216 C.3        1 UNL1     0.1275
     17 N         4.858645   4.5545   -2.685174 N.2        1 UNL1     -0.2557
     18 C         4.926098   3.503496   -4.870238 C.3        1 UNL1     0.0016
     19 C         5.844167   2.85871   -5.89639 C.3        1 UNL1     0.0026
     20 N         6.259353   1.554567   -5.398537 N.3        1 UNL1     -0.3018
     21 C         6.942811   1.572209   -4.103568 C.3        1 UNL1     0.0026
     22 C         6.000882   2.219725   -3.087011 C.3        1 UNL1     0.0016
     23 C         6.886434   0.735714   -6.416816 C.3        1 UNL1     0.0012
     24 C         5.848759   0.276533   -7.453223 C.3        1 UNL1     -0.0339
     25 C         6.171807   -1.128305   -7.988132 C.3        1 UNL1     -0.0615
     26 C         4.453454   0.34035   -6.856705 C.3        1 UNL1     -0.0615
     27 C         5.315932   9.502826   -2.425878 C.ar        1 UNL1     0.1347
     28 C         4.261608   9.700196   -1.552095 C.ar        1 UNL1     0.0342
     29 C         3.679039   8.512574   -1.06084 C.ar        1 UNL1     0.1435
     30 C         4.09796   7.242839   -1.460213 C.ar        1 UNL1     0.0774
     31 O         2.571595   8.538311   -0.287593 O.3        1 UNL1     -0.4436
     32 C         2.026494   7.214256   -0.390625 C.3        1 UNL1     0.3143
     33 C         3.195448   6.33415   -0.784547 C.2        1 UNL1     0.2504
     34 C         3.611834   11.018996   -1.237993 C.3        1 UNL1     -0.0327
     35 O         1.628081   6.813952   0.926293 O.2        1 UNL1     -0.4528
     36 C         -1.301996   4.447804   0.452913 C.3        1 UNL1     0.0854
     37 C         -1.375682   3.105894   -0.372538 C.3        1 UNL1     0.0236
     38 C         -1.866448   1.826259   0.460184 C.3        1 UNL1     0.1131
     39 C         -1.177271   1.476098   1.84029 C.3        1 UNL1     0.0200
     40 C         0.481191   1.555191   2.000564 C.3        1 UNL1     0.0661
     41 C         1.615333   0.851286   0.953735 C.3        1 UNL1     0.0091
     42 C         3.299475   1.402597   0.479262 C.3        1 UNL1     0.0661
     43 C         6.770358   8.096114   -3.900143 C.2        1 UNL1     0.2131
     44 O         7.104046   8.994216   -4.651675 O.2        1 UNL1     -0.2851
     45 O         6.020575   10.606981   -2.901017 O.3        1 UNL1     -0.5056
     46 O         3.355848   5.153532   -0.569454 O.2        1 UNL1     -0.2836
     47 C         5.21293   2.116177   2.196034 C.3        1 UNL1     -0.0566
     48 O         3.917924   0.071107   0.688477 O.3        1 UNL1     -0.3909
     49 C         0.912246   0.435406   -0.319138 C.3        1 UNL1     -0.0577
     50 O         0.889463   2.863479   2.346133 O.3        1 UNL1     -0.3910
     51 O         -1.503718   4.327854   1.843004 O.3        1 UNL1     -0.3753
     52 C         -0.2366   3.016112   -1.439955 C.3        1 UNL1     -0.0564
     53 O         -2.262382   0.663942   -0.402708 O.3        1 UNL1     -0.4608
     54 C         -2.031697   -0.655655   -0.113959 C.2        1 UNL1     0.3042
     55 O         -1.161445   -1.383368   -0.590335 O.2        1 UNL1     -0.2512
     56 C         -2.938083   -1.205773   0.950254 C.3        1 UNL1     0.0332
     57 C         -2.069762   2.118486   3.001742 C.3        1 UNL1     -0.0567
     58 C         1.012247   7.248363   -1.557531 C.3        1 UNL1     0.0210
     59 C         -2.751834   4.834536   2.313478 C.3        1 UNL1     0.0372
     60 C         -0.051192   5.232678   0.266837 C.2        1 UNL1     -0.0208
     61 C         0.731315   5.837074   1.161897 C.2        1 UNL1     0.0882
     62 H         4.269356   3.317148   0.695482 H        1 UNL1     0.0365
     63 H         5.847085   4.351794   -0.085866 H        1 UNL1     0.0576
     64 H         8.17604   2.461978   -0.793924 H        1 UNL1     0.0615
     65 H         7.723782   5.52571   -1.202418 H        1 UNL1     0.0622
     66 H         -2.1111   5.068694   0.043166 H        1 UNL1     0.0645
     67 H         -2.22595   3.260033   -1.059448 H        1 UNL1     0.0362
     68 H         -2.885192   2.153981   0.717635 H        1 UNL1     0.0741
     69 H         -1.39002   0.443623   2.083477 H        1 UNL1     0.0359
     70 H         0.610957   0.970084   2.931085 H        1 UNL1     0.0600
     71 H         1.757648   -0.127332   1.452745 H        1 UNL1     0.0348
     72 H         3.059432   1.930788   1.413451 H        1 UNL1     0.0602
     73 H         0.117079   5.380758   -0.770952 H        1 UNL1     0.0628
     74 H         0.661534   5.691062   2.240344 H        1 UNL1     0.1022
     75 H         11.310017   3.94202   -2.385084 H        1 UNL1     0.0279
     76 H         10.479185   3.792136   -3.881931 H        1 UNL1     0.0279
     77 H         11.32031   5.321564   -3.40375 H        1 UNL1     0.0279
     78 H         8.746356   5.609075   -4.735143 H        1 UNL1     0.1553
     79 H         7.644258   4.00469   -4.364261 H        1 UNL1     0.1484
     80 H         4.023947   2.901919   -4.705933 H        1 UNL1     0.0317
     81 H         4.5892   4.482665   -5.227139 H        1 UNL1     0.0317
     82 H         6.71486   3.492899   -6.119124 H        1 UNL1     0.0428
     83 H         5.285054   2.776299   -6.828941 H        1 UNL1     0.0428
     84 H         7.172554   0.575103   -3.715226 H        1 UNL1     0.0428
     85 H         7.922064   2.066802   -4.164885 H        1 UNL1     0.0428
     86 H         6.47628   2.095558   -2.131727 H        1 UNL1     0.0317
     87 H         5.084191   1.624714   -2.993554 H        1 UNL1     0.0317
     88 H         7.64368   1.345393   -6.926879 H        1 UNL1     0.0429
     89 H         7.40912   -0.121475   -5.973194 H        1 UNL1     0.0429
     90 H         5.846955   0.978878   -8.295198 H        1 UNL1     0.0308
     91 H         5.474726   -1.423051   -8.778262 H        1 UNL1     0.0233
     92 H         7.192117   -1.168527   -8.376666 H        1 UNL1     0.0233
     93 H         6.111293   -1.896464   -7.20768 H        1 UNL1     0.0233
     94 H         3.715614   -0.018243   -7.582542 H        1 UNL1     0.0233
     95 H         4.39548   -0.300478   -5.972432 H        1 UNL1     0.0233
     96 H         4.18825   1.361925   -6.570314 H        1 UNL1     0.0233
     97 H         2.551374   11.016659   -1.471765 H        1 UNL1     0.0280
     98 H         3.684087   11.272515   -0.172271 H        1 UNL1     0.0280
     99 H         4.093595   11.817142   -1.82618 H        1 UNL1     0.0280
     100 H         6.956205   10.5341   -2.830968 H        1 UNL1     0.2922
     101 H         4.640984   2.785039   2.838807 H        1 UNL1     0.0236
     102 H         6.280815   2.159771   2.407467 H        1 UNL1     0.0236
     103 H         4.906663   1.102461   2.503887 H        1 UNL1     0.0236
     104 H         3.501297   -0.32689   1.477774 H        1 UNL1     0.2098
     105 H         0.672224   1.257464   -0.988781 H        1 UNL1     0.0234
     106 H         1.402361   -0.368415   -0.868306 H        1 UNL1     0.0234
     107 H         0.0   -0.0   0.0 H        1 UNL1     0.0234
     108 H         1.854432   2.913227   2.20426 H        1 UNL1     0.2098
     109 H         -0.2903   3.831153   -2.175167 H        1 UNL1     0.0234
     110 H         0.76543   2.986197   -0.99861 H        1 UNL1     0.0234
     111 H         -0.299209   2.086662   -2.021461 H        1 UNL1     0.0234
     112 H         -2.688429   -2.252827   1.14697 H        1 UNL1     0.0342
     113 H         -2.900186   -0.616522   1.865235 H        1 UNL1     0.0342
     114 H         -3.969795   -1.170489   0.574101 H        1 UNL1     0.0342
     115 H         -2.053744   1.507185   3.914564 H        1 UNL1     0.0234
     116 H         -1.773806   3.131914   3.279994 H        1 UNL1     0.0234
     117 H         -3.149093   2.12991   2.77184 H        1 UNL1     0.0234
     118 H         -0.029419   7.152257   -1.2044 H        1 UNL1     0.0309
     119 H         1.099195   8.14719   -2.176202 H        1 UNL1     0.0309
     120 H         1.127195   6.398652   -2.239355 H        1 UNL1     0.0309
     121 H         -2.634278   5.070885   3.37068 H        1 UNL1     0.0524
     122 H         -3.048123   5.762589   1.796789 H        1 UNL1     0.0524
     123 H         -3.533295   4.091828   2.180074 H        1 UNL1     0.0524
@<TRIPOS>BOND
     1     1     2    1
     2     1    42    1
     3     2     3    2
     4     3     4    1
     5     4     5    2
     6     5     7    1
     7     6    75    1
     8     6    76    1
     9     6    77    1
    10     7     9   am
    11     9    10    1
    12    10    11    2
    13    10    43    1
    14    11    14    1
    15    11    15    1
    16    12    13   ar
    17    12    27   ar
    18    12    43    1
    19    13    14    1
    20    13    30   ar
    21    14    17    2
    22    15    16    1
    23    16    17    1
    24    16    18    1
    25    16    22    1
    26    18    19    1
    27    19    20    1
    28    20    21    1
    29    21    22    1
    30    23    24    1
    31    23    88    1
    32    23    89    1
    33    24    25    1
    34    24    26    1
    35    24    90    1
    36    25    91    1
    37    25    92    1
    38    25    93    1
    39    26    94    1
    40    26    95    1
    41    26    96    1
    42    27    28   ar
    43    28    29   ar
    44    29    30   ar
    45    29    31    1
    46    30    33    1
    47    31    32    1
    48    32    33    1
    49    32    35    1
    50    34    97    1
    51    34    98    1
    52    34    99    1
    53    35    61    1
    54    36    37    1
    55    36    60    1
    56    37    38    1
    57    38    39    1
    58    39    40    1
    59    40    41    1
    60    41    42    1
    61    45   100    1
    62    47   101    1
    63    47   102    1
    64    47   103    1
    65    48   104    1
    66    49   105    1
    67    49   106    1
    68    49   107    1
    69    50   108    1
    70    51    59    1
    71    52   109    1
    72    52   110    1
    73    52   111    1
    74    53    54    1
    75    54    55    2
    76    54    56    1
    77    56   112    1
    78    56   113    1
    79    56   114    1
    80    57   115    1
    81    57   116    1
    82    57   117    1
    83    58   118    1
    84    58   119    1
    85    58   120    1
    86    59   121    1
    87    59   122    1
    88    59   123    1
    89    60    61    2
    90     1    47    1
    91     1    62    1
    92     2    63    1
    93     3    64    1
    94     4    65    1
    95     5     6    1
    96     7     8    2
    97     9    78    1
    98    15    79    1
    99    18    80    1
   100    18    81    1
   101    19    82    1
   102    19    83    1
   103    20    23    1
   104    21    84    1
   105    21    85    1
   106    22    86    1
   107    22    87    1
   108    27    45    1
   109    28    34    1
   110    32    58    1
   111    33    46    2
   112    36    51    1
   113    36    66    1
   114    37    52    1
   115    37    67    1
   116    38    53    1
   117    38    68    1
   118    42    48    1
   119    42    72    1
   120    43    44    2
   121    60    73    1
   122    61    74    1
   123    39    69    1
   124    39    57    1
   125    40    70    1
   126    40    50    1
   127    41    71    1
   128    41    49    1
