@<TRIPOS>MOLECULE
*****
 123 128 0 0 0
SMALL
GASTEIGER

@<TRIPOS>ATOM
     1 C         4.982271   2.084052   0.912845 C.3        1 UNL1     0.0009
     2 C         6.413976   3.01523   0.19162 C.2        1 UNL1     -0.0787
     3 C         7.743187   3.027967   -0.382037 C.2        1 UNL1     -0.0649
     4 C         8.581197   4.345094   -1.037227 C.2        1 UNL1     -0.0542
     5 C         9.641161   4.738417   -1.890954 C.2        1 UNL1     0.0115
     6 C         10.869121   4.221422   -2.6898 C.3        1 UNL1     -0.0348
     7 C         9.672818   6.243936   -2.447193 C.2        1 UNL1     0.2441
     8 O         10.407414   7.107669   -1.988 O.2        1 UNL1     -0.2702
     9 N         8.993845   6.437076   -3.662859 N.am        1 UNL1     -0.2772
     10 C         7.667948   6.723551   -3.432095 C.2        1 UNL1     0.1049
     11 C         6.875202   5.686863   -3.22948 C.2        1 UNL1     0.0801
     12 C         6.162357   8.189096   -2.074631 C.ar        1 UNL1     0.0753
     13 C         5.456139   6.997226   -1.715033 C.ar        1 UNL1     0.0305
     14 C         5.710969   5.724766   -2.386568 C.2        1 UNL1     0.0924
     15 N         7.103188   4.375527   -3.416425 N.pl3        1 UNL1     -0.3170
     16 C         5.860381   3.679927   -3.211916 C.3        1 UNL1     0.1275
     17 N         5.090192   4.555979   -2.25428 N.2        1 UNL1     -0.2557
     18 C         5.096381   3.721579   -4.531867 C.3        1 UNL1     0.0016
     19 C         5.975558   3.128975   -5.621572 C.3        1 UNL1     0.0026
     20 N         6.315545   1.760865   -5.255908 N.3        1 UNL1     -0.3018
     21 C         6.999442   1.612803   -3.969544 C.3        1 UNL1     0.0026
     22 C         6.096597   2.210416   -2.888978 C.3        1 UNL1     0.0016
     23 C         6.894241   1.011125   -6.353016 C.3        1 UNL1     0.0012
     24 C         5.830388   0.711134   -7.420714 C.3        1 UNL1     -0.0339
     25 C         5.856084   1.755216   -8.549114 C.3        1 UNL1     -0.0615
     26 C         6.014641   -0.697417   -7.95813 C.3        1 UNL1     -0.0615
     27 C         5.830382   9.421088   -1.515965 C.ar        1 UNL1     0.1347
     28 C         4.789472   9.591816   -0.620751 C.ar        1 UNL1     0.0342
     29 C         4.140018   8.39698   -0.244266 C.ar        1 UNL1     0.1435
     30 C         4.485322   7.15059   -0.768192 C.ar        1 UNL1     0.0774
     31 O         3.036197   8.410038   0.53446 O.3        1 UNL1     -0.4436
     32 C         2.416078   7.13563   0.305963 C.3        1 UNL1     0.3143
     33 C         3.532512   6.233093   -0.179025 C.2        1 UNL1     0.2504
     34 C         4.216468   10.908449   -0.175507 C.3        1 UNL1     -0.0327
     35 O         1.995942   6.631811   1.579895 O.2        1 UNL1     -0.4528
     36 C         -1.065104   4.494135   0.895477 C.3        1 UNL1     0.0854
     37 C         -1.215914   3.245774   -0.05656 C.3        1 UNL1     0.0236
     38 C         -1.778843   1.92089   0.650219 C.3        1 UNL1     0.1131
     39 C         -1.110276   1.398737   1.985376 C.3        1 UNL1     0.0200
     40 C         0.550061   1.36714   2.142607 C.3        1 UNL1     0.0661
     41 C         1.64156   0.705506   1.025252 C.3        1 UNL1     0.0091
     42 C         3.354323   1.203707   0.596718 C.3        1 UNL1     0.0661
     43 C         7.201185   8.084714   -3.12924 C.2        1 UNL1     0.2131
     44 O         7.585467   9.031528   -3.791515 O.2        1 UNL1     -0.2851
     45 O         6.596935   10.52446   -1.885294 O.3        1 UNL1     -0.5056
     46 O         3.625089   5.029885   -0.081173 O.2        1 UNL1     -0.2836
     47 C         5.306254   1.635767   2.363382 C.3        1 UNL1     -0.0566
     48 O         3.89555   -0.174929   0.671233 O.3        1 UNL1     -0.3909
     49 C         0.915256   0.456848   -0.277878 C.3        1 UNL1     -0.0577
     50 O         1.032776   2.60996   2.611764 O.3        1 UNL1     -0.3910
     51 O         -1.272777   4.250503   2.268411 O.3        1 UNL1     -0.3753
     52 C         -0.084301   3.19605   -1.134489 C.3        1 UNL1     -0.0564
     53 O         -2.241096   0.872995   -0.319607 O.3        1 UNL1     -0.4608
     54 C         -2.392391   -0.459586   -0.038062 C.2        1 UNL1     0.3042
     55 O         -1.720815   -1.395308   -0.470784 O.2        1 UNL1     -0.2512
     56 C         -3.47972   -0.743992   0.958704 C.3        1 UNL1     0.0332
     57 C         -1.963996   1.974268   3.209344 C.3        1 UNL1     -0.0567
     58 C         1.404955   7.341436   -0.845908 C.3        1 UNL1     0.0210
     59 C         -1.758024   5.36938   3.009029 C.3        1 UNL1     0.0372
     60 C         0.228539   5.220885   0.779368 C.2        1 UNL1     -0.0208
     61 C         1.044773   5.689272   1.724418 C.2        1 UNL1     0.0882
     62 H         4.432408   3.029539   0.99294 H        1 UNL1     0.0365
     63 H         6.066499   4.044044   0.306824 H        1 UNL1     0.0576
     64 H         8.283037   2.102904   -0.596345 H        1 UNL1     0.0615
     65 H         8.006904   5.212669   -0.701097 H        1 UNL1     0.0622
     66 H         -1.837475   5.197213   0.553177 H        1 UNL1     0.0645
     67 H         -2.056244   3.514552   -0.720007 H        1 UNL1     0.0362
     68 H         -2.777025   2.279381   0.944565 H        1 UNL1     0.0741
     69 H         -1.381734   0.361237   2.127897 H        1 UNL1     0.0359
     70 H         0.646483   0.687395   3.010772 H        1 UNL1     0.0600
     71 H         1.727777   -0.323734   1.425486 H        1 UNL1     0.0348
     72 H         3.145338   1.650821   1.579433 H        1 UNL1     0.0602
     73 H         0.404578   5.459918   -0.240006 H        1 UNL1     0.0628
     74 H         0.9672   5.442706   2.783864 H        1 UNL1     0.1022
     75 H         10.981472   3.117419   -2.564951 H        1 UNL1     0.0279
     76 H         10.825909   4.331706   -3.771021 H        1 UNL1     0.0279
     77 H         11.824471   4.583953   -2.282887 H        1 UNL1     0.0279
     78 H         9.031071   5.582717   -4.214912 H        1 UNL1     0.1553
     79 H         7.839009   4.015174   -3.995774 H        1 UNL1     0.1484
     80 H         4.161312   3.159208   -4.421635 H        1 UNL1     0.0317
     81 H         4.815993   4.748557   -4.789448 H        1 UNL1     0.0317
     82 H         6.881066   3.731255   -5.78658 H        1 UNL1     0.0428
     83 H         5.412245   3.170155   -6.554328 H        1 UNL1     0.0428
     84 H         7.171838   0.571034   -3.681778 H        1 UNL1     0.0428
     85 H         8.0054   2.054411   -3.988191 H        1 UNL1     0.0428
     86 H         6.564504   1.966532   -1.953259 H        1 UNL1     0.0317
     87 H         5.147356   1.662326   -2.848525 H        1 UNL1     0.0317
     88 H         7.682549   1.625055   -6.807939 H        1 UNL1     0.0429
     89 H         7.370187   0.088004   -5.997916 H        1 UNL1     0.0429
     90 H         4.838514   0.72614   -6.953624 H        1 UNL1     0.0308
     91 H         6.839963   1.801895   -9.025459 H        1 UNL1     0.0233
     92 H         5.101991   1.525219   -9.305457 H        1 UNL1     0.0233
     93 H         5.629046   2.765725   -8.188336 H        1 UNL1     0.0233
     94 H         5.388322   -0.848633   -8.843959 H        1 UNL1     0.0233
     95 H         7.056708   -0.851989   -8.251672 H        1 UNL1     0.0233
     96 H         5.743326   -1.448323   -7.210804 H        1 UNL1     0.0233
     97 H         3.378701   10.779543   0.503287 H        1 UNL1     0.0280
     98 H         4.95155   11.517552   0.366622 H        1 UNL1     0.0280
     99 H         3.865496   11.474187   -1.05406 H        1 UNL1     0.0280
     100 H         6.101424   11.250973   -2.220363 H        1 UNL1     0.2922
     101 H         4.443228   1.127069   2.792416 H        1 UNL1     0.0236
     102 H         5.656659   2.450813   2.995758 H        1 UNL1     0.0236
     103 H         6.116038   0.88779   2.394572 H        1 UNL1     0.0236
     104 H         4.260609   -0.300359   1.56899 H        1 UNL1     0.2098
     105 H         0.680494   1.357197   -0.840079 H        1 UNL1     0.0234
     106 H         1.384677   -0.282214   -0.926999 H        1 UNL1     0.0234
     107 H         0.0   -0.0   0.0 H        1 UNL1     0.0234
     108 H         0.834451   3.275949   1.925547 H        1 UNL1     0.2098
     109 H         0.916777   3.141234   -0.684435 H        1 UNL1     0.0234
     110 H         -0.208857   2.377724   -1.851826 H        1 UNL1     0.0234
     111 H         -0.080342   4.099272   -1.759086 H        1 UNL1     0.0234
     112 H         -3.544194   -1.820835   1.142 H        1 UNL1     0.0342
     113 H         -3.335443   -0.197208   1.889325 H        1 UNL1     0.0342
     114 H         -4.435635   -0.4182   0.52598 H        1 UNL1     0.0342
     115 H         -3.007311   1.631326   3.17657 H        1 UNL1     0.0234
     116 H         -1.563513   1.714066   4.191157 H        1 UNL1     0.0234
     117 H         -2.098414   3.069136   3.175622 H        1 UNL1     0.0234
     118 H         0.444717   7.750994   -0.486448 H        1 UNL1     0.0309
     119 H         1.789957   7.981152   -1.646369 H        1 UNL1     0.0309
     120 H         1.114662   6.399365   -1.323755 H        1 UNL1     0.0309
     121 H         -1.005836   6.155517   2.94938 H        1 UNL1     0.0524
     122 H         -2.694705   5.773716   2.590485 H        1 UNL1     0.0524
     123 H         -1.926608   5.089746   4.045117 H        1 UNL1     0.0524
@<TRIPOS>BOND
     1     1     2    1
     2     1    42    1
     3     2     3    2
     4     3     4    1
     5     4     5    2
     6     5     7    1
     7     6    75    1
     8     6    76    1
     9     6    77    1
    10     7     9   am
    11     9    10    1
    12    10    11    2
    13    10    43    1
    14    11    14    1
    15    11    15    1
    16    12    13   ar
    17    12    27   ar
    18    12    43    1
    19    13    14    1
    20    13    30   ar
    21    14    17    2
    22    15    16    1
    23    16    17    1
    24    16    18    1
    25    16    22    1
    26    18    19    1
    27    19    20    1
    28    20    21    1
    29    21    22    1
    30    23    24    1
    31    23    88    1
    32    23    89    1
    33    24    25    1
    34    24    26    1
    35    24    90    1
    36    25    91    1
    37    25    92    1
    38    25    93    1
    39    26    94    1
    40    26    95    1
    41    26    96    1
    42    27    28   ar
    43    28    29   ar
    44    29    30   ar
    45    29    31    1
    46    30    33    1
    47    31    32    1
    48    32    33    1
    49    32    35    1
    50    34    97    1
    51    34    98    1
    52    34    99    1
    53    35    61    1
    54    36    37    1
    55    36    60    1
    56    37    38    1
    57    38    39    1
    58    39    40    1
    59    40    41    1
    60    41    42    1
    61    45   100    1
    62    47   101    1
    63    47   102    1
    64    47   103    1
    65    48   104    1
    66    49   105    1
    67    49   106    1
    68    49   107    1
    69    50   108    1
    70    51    59    1
    71    52   109    1
    72    52   110    1
    73    52   111    1
    74    53    54    1
    75    54    55    2
    76    54    56    1
    77    56   112    1
    78    56   113    1
    79    56   114    1
    80    57   115    1
    81    57   116    1
    82    57   117    1
    83    58   118    1
    84    58   119    1
    85    58   120    1
    86    59   121    1
    87    59   122    1
    88    59   123    1
    89    60    61    2
    90     1    47    1
    91     1    62    1
    92     2    63    1
    93     3    64    1
    94     4    65    1
    95     5     6    1
    96     7     8    2
    97     9    78    1
    98    15    79    1
    99    18    80    1
   100    18    81    1
   101    19    82    1
   102    19    83    1
   103    20    23    1
   104    21    84    1
   105    21    85    1
   106    22    86    1
   107    22    87    1
   108    27    45    1
   109    28    34    1
   110    32    58    1
   111    33    46    2
   112    36    51    1
   113    36    66    1
   114    37    52    1
   115    37    67    1
   116    38    53    1
   117    38    68    1
   118    42    48    1
   119    42    72    1
   120    43    44    2
   121    60    73    1
   122    61    74    1
   123    39    69    1
   124    39    57    1
   125    40    70    1
   126    40    50    1
   127    41    71    1
   128    41    49    1
