@<TRIPOS>MOLECULE
*****
 123 128 0 0 0
SMALL
GASTEIGER

@<TRIPOS>ATOM
     1 C         5.166439   1.760194   0.45705 C.3        1 UNL1     0.0009
     2 C         6.59589   2.568888   -0.403021 C.2        1 UNL1     -0.0787
     3 C         7.873671   2.473065   -1.076919 C.2        1 UNL1     -0.0649
     4 C         8.74358   3.709626   -1.838846 C.2        1 UNL1     -0.0542
     5 C         9.756918   4.003909   -2.784162 C.2        1 UNL1     0.0115
     6 C         10.880874   3.380381   -3.656663 C.3        1 UNL1     -0.0348
     7 C         9.84516   5.487008   -3.392126 C.2        1 UNL1     0.2441
     8 O         10.669681   6.310649   -3.020233 O.2        1 UNL1     -0.2702
     9 N         9.086983   5.691667   -4.558074 N.am        1 UNL1     -0.2772
     10 C         7.805482   6.075773   -4.236302 C.2        1 UNL1     0.1049
     11 C         6.963685   5.102716   -3.938374 C.2        1 UNL1     0.0801
     12 C         6.512726   7.680464   -2.818175 C.ar        1 UNL1     0.0753
     13 C         5.758993   6.551184   -2.365162 C.ar        1 UNL1     0.0305
     14 C         5.874586   5.245355   -3.01053 C.2        1 UNL1     0.0924
     15 N         7.088144   3.773911   -4.097478 N.pl3        1 UNL1     -0.3170
     16 C         5.821624   3.172197   -3.774797 C.3        1 UNL1     0.1275
     17 N         5.18948   4.126642   -2.791358 N.2        1 UNL1     -0.2557
     18 C         4.960545   3.228684   -5.032992 C.3        1 UNL1     0.0016
     19 C         5.709627   2.545547   -6.166036 C.3        1 UNL1     0.0026
     20 N         5.985213   1.168259   -5.781124 N.3        1 UNL1     -0.3018
     21 C         6.756865   1.010243   -4.546639 C.3        1 UNL1     0.0026
     22 C         5.983856   1.699751   -3.421059 C.3        1 UNL1     0.0016
     23 C         6.424342   0.349021   -6.893175 C.3        1 UNL1     0.0012
     24 C         5.263147   0.096478   -7.867652 C.3        1 UNL1     -0.0339
     25 C         5.348398   1.018552   -9.095076 C.3        1 UNL1     -0.0615
     26 C         5.229778   -1.367767   -8.269715 C.3        1 UNL1     -0.0615
     27 C         6.308808   8.948035   -2.277991 C.ar        1 UNL1     0.1347
     28 C         5.355363   9.21609   -1.311999 C.ar        1 UNL1     0.0342
     29 C         4.659222   8.080408   -0.846405 C.ar        1 UNL1     0.1435
     30 C         4.878173   6.798555   -1.352503 C.ar        1 UNL1     0.0774
     31 O         3.623499   8.192243   0.013697 O.3        1 UNL1     -0.4436
     32 C         2.90358   6.957789   -0.123101 C.3        1 UNL1     0.3143
     33 C         3.915571   5.966548   -0.661179 C.2        1 UNL1     0.2504
     34 C         4.908426   10.581493   -0.869254 C.3        1 UNL1     -0.0327
     35 O         2.55236   6.521101   1.195687 O.2        1 UNL1     -0.4528
     36 C         -0.689001   4.581707   0.820961 C.3        1 UNL1     0.0854
     37 C         -0.997358   3.319932   -0.073669 C.3        1 UNL1     0.0236
     38 C         -1.590112   2.058072   0.718856 C.3        1 UNL1     0.1131
     39 C         -0.854852   1.529481   2.015873 C.3        1 UNL1     0.0200
     40 C         0.806881   1.387534   2.046432 C.3        1 UNL1     0.0661
     41 C         1.760361   0.620066   0.87192 C.3        1 UNL1     0.0091
     42 C         3.463498   0.985955   0.296722 C.3        1 UNL1     0.0661
     43 C         7.455979   7.47413   -3.945101 C.2        1 UNL1     0.2131
     44 O         7.849293   8.372633   -4.66672 O.2        1 UNL1     -0.2851
     45 O         7.115875   9.98461   -2.74231 O.3        1 UNL1     -0.5056
     46 O         3.934993   4.76313   -0.529797 O.2        1 UNL1     -0.2836
     47 C         5.572976   1.33244   1.892924 C.3        1 UNL1     -0.0566
     48 O         3.915617   -0.424133   0.376451 O.3        1 UNL1     -0.3909
     49 C         0.918711   0.384933   -0.362515 C.3        1 UNL1     -0.0577
     50 O         1.406972   2.606921   2.434643 O.3        1 UNL1     -0.3910
     51 O         -0.803719   4.39261   2.213266 O.3        1 UNL1     -0.3753
     52 C         0.039997   3.161007   -1.2328 C.3        1 UNL1     -0.0564
     53 O         -2.196259   1.01725   -0.176466 O.3        1 UNL1     -0.4608
     54 C         -2.394514   -0.297875   0.153795 C.2        1 UNL1     0.3042
     55 O         -1.812397   -1.279391   -0.306209 O.2        1 UNL1     -0.2512
     56 C         -3.408435   -0.497895   1.244056 C.3        1 UNL1     0.0332
     57 C         -1.569181   2.197691   3.28134 C.3        1 UNL1     -0.0567
     58 C         1.820899   7.199909   -1.200463 C.3        1 UNL1     0.0210
     59 C         -1.11468   5.57139   2.954647 C.3        1 UNL1     0.0372
     60 C         0.637125   5.213504   0.581413 C.2        1 UNL1     -0.0208
     61 C         1.554702   5.651228   1.444659 C.2        1 UNL1     0.0882
     62 H         4.688974   2.743395   0.546795 H        1 UNL1     0.0365
     63 H         6.32806   3.622177   -0.296632 H        1 UNL1     0.0576
     64 H         8.331971   1.507066   -1.300334 H        1 UNL1     0.0615
     65 H         8.256774   4.624186   -1.489443 H        1 UNL1     0.0622
     66 H         -1.437239   5.326445   0.515097 H        1 UNL1     0.0645
     67 H         -1.867491   3.627064   -0.679556 H        1 UNL1     0.0362
     68 H         -2.535834   2.493129   1.076429 H        1 UNL1     0.0741
     69 H         -1.182933   0.517794   2.214013 H        1 UNL1     0.0359
     70 H         0.925753   0.727985   2.927298 H        1 UNL1     0.0600
     71 H         1.808891   -0.400741   1.299184 H        1 UNL1     0.0348
     72 H         3.362882   1.474533   1.276764 H        1 UNL1     0.0602
     73 H         0.747912   5.41037   -0.455997 H        1 UNL1     0.0628
     74 H         1.544506   5.441184   2.514713 H        1 UNL1     0.1022
     75 H         10.909973   2.27185   -3.524957 H        1 UNL1     0.0279
     76 H         10.773506   3.485559   -4.733919 H        1 UNL1     0.0279
     77 H         11.888325   3.665264   -3.31964 H        1 UNL1     0.0279
     78 H         9.023472   4.821264   -5.081947 H        1 UNL1     0.1553
     79 H         7.750339   3.346969   -4.718889 H        1 UNL1     0.1484
     80 H         4.001593   2.735807   -4.832367 H        1 UNL1     0.0317
     81 H         4.729966   4.264781   -5.303152 H        1 UNL1     0.0317
     82 H         6.637528   3.078693   -6.420338 H        1 UNL1     0.0428
     83 H         5.078622   2.598799   -7.053756 H        1 UNL1     0.0428
     84 H         6.881418   -0.032258   -4.237623 H        1 UNL1     0.0428
     85 H         7.785473   1.380421   -4.65732 H        1 UNL1     0.0428
     86 H         6.506661   1.451057   -2.516175 H        1 UNL1     0.0317
     87 H         5.006268   1.220091   -3.289368 H        1 UNL1     0.0317
     88 H         7.215822   0.892199   -7.425915 H        1 UNL1     0.0429
     89 H         6.861223   -0.595604   -6.544475 H        1 UNL1     0.0429
     90 H         4.314136   0.287398   -7.352735 H        1 UNL1     0.0308
     91 H         6.300634   0.895419   -9.619658 H        1 UNL1     0.0233
     92 H         4.528391   0.816067   -9.788038 H        1 UNL1     0.0233
     93 H         5.267575   2.078997   -8.827197 H        1 UNL1     0.0233
     94 H         4.569587   -1.507581   -9.132521 H        1 UNL1     0.0233
     95 H         6.231976   -1.699895   -8.554762 H        1 UNL1     0.0233
     96 H         4.868266   -1.997902   -7.452275 H        1 UNL1     0.0233
     97 H         4.080824   10.531809   -0.167943 H        1 UNL1     0.0280
     98 H         5.706671   11.131241   -0.35366 H        1 UNL1     0.0280
     99 H         4.583971   11.165853   -1.745809 H        1 UNL1     0.0280
     100 H         6.646119   10.7468   -3.032168 H        1 UNL1     0.2922
     101 H         4.711234   0.908674   2.40817 H        1 UNL1     0.0236
     102 H         6.036823   2.135752   2.464342 H        1 UNL1     0.0236
     103 H         6.321769   0.522827   1.887475 H        1 UNL1     0.0236
     104 H         4.335683   -0.550262   1.249724 H        1 UNL1     0.2098
     105 H         0.700437   1.282948   -0.934998 H        1 UNL1     0.0234
     106 H         1.285555   -0.402702   -1.02053 H        1 UNL1     0.0234
     107 H         0.0   -0.0   0.0 H        1 UNL1     0.0234
     108 H         1.256375   3.247135   1.712691 H        1 UNL1     0.2098
     109 H         1.068924   3.062365   -0.859584 H        1 UNL1     0.0234
     110 H         -0.188315   2.325392   -1.903147 H        1 UNL1     0.0234
     111 H         0.046254   4.038205   -1.89343 H        1 UNL1     0.0234
     112 H         -3.503277   -1.563674   1.47311 H        1 UNL1     0.0342
     113 H         -3.166154   0.07393   2.138573 H        1 UNL1     0.0342
     114 H         -4.381681   -0.144507   0.876531 H        1 UNL1     0.0342
     115 H         -2.640597   1.957302   3.319663 H        1 UNL1     0.0234
     116 H         -1.133595   1.90995   4.240255 H        1 UNL1     0.0234
     117 H         -1.599529   3.300032   3.238144 H        1 UNL1     0.0234
     118 H         0.919607   7.680901   -0.781744 H        1 UNL1     0.0309
     119 H         2.182254   7.792048   -2.04722 H        1 UNL1     0.0309
     120 H         1.4349   6.266973   -1.6256 H        1 UNL1     0.0309
     121 H         -0.278831   6.261431   2.842595 H        1 UNL1     0.0524
     122 H         -2.01714   6.078643   2.57478 H        1 UNL1     0.0524
     123 H         -1.261919   5.328086   4.003083 H        1 UNL1     0.0524
@<TRIPOS>BOND
     1     1     2    1
     2     1    42    1
     3     2     3    2
     4     3     4    1
     5     4     5    2
     6     5     7    1
     7     6    75    1
     8     6    76    1
     9     6    77    1
    10     7     9   am
    11     9    10    1
    12    10    11    2
    13    10    43    1
    14    11    14    1
    15    11    15    1
    16    12    13   ar
    17    12    27   ar
    18    12    43    1
    19    13    14    1
    20    13    30   ar
    21    14    17    2
    22    15    16    1
    23    16    17    1
    24    16    18    1
    25    16    22    1
    26    18    19    1
    27    19    20    1
    28    20    21    1
    29    21    22    1
    30    23    24    1
    31    23    88    1
    32    23    89    1
    33    24    25    1
    34    24    26    1
    35    24    90    1
    36    25    91    1
    37    25    92    1
    38    25    93    1
    39    26    94    1
    40    26    95    1
    41    26    96    1
    42    27    28   ar
    43    28    29   ar
    44    29    30   ar
    45    29    31    1
    46    30    33    1
    47    31    32    1
    48    32    33    1
    49    32    35    1
    50    34    97    1
    51    34    98    1
    52    34    99    1
    53    35    61    1
    54    36    37    1
    55    36    60    1
    56    37    38    1
    57    38    39    1
    58    39    40    1
    59    40    41    1
    60    41    42    1
    61    45   100    1
    62    47   101    1
    63    47   102    1
    64    47   103    1
    65    48   104    1
    66    49   105    1
    67    49   106    1
    68    49   107    1
    69    50   108    1
    70    51    59    1
    71    52   109    1
    72    52   110    1
    73    52   111    1
    74    53    54    1
    75    54    55    2
    76    54    56    1
    77    56   112    1
    78    56   113    1
    79    56   114    1
    80    57   115    1
    81    57   116    1
    82    57   117    1
    83    58   118    1
    84    58   119    1
    85    58   120    1
    86    59   121    1
    87    59   122    1
    88    59   123    1
    89    60    61    2
    90     1    47    1
    91     1    62    1
    92     2    63    1
    93     3    64    1
    94     4    65    1
    95     5     6    1
    96     7     8    2
    97     9    78    1
    98    15    79    1
    99    18    80    1
   100    18    81    1
   101    19    82    1
   102    19    83    1
   103    20    23    1
   104    21    84    1
   105    21    85    1
   106    22    86    1
   107    22    87    1
   108    27    45    1
   109    28    34    1
   110    32    58    1
   111    33    46    2
   112    36    51    1
   113    36    66    1
   114    37    52    1
   115    37    67    1
   116    38    53    1
   117    38    68    1
   118    42    48    1
   119    42    72    1
   120    43    44    2
   121    60    73    1
   122    61    74    1
   123    39    69    1
   124    39    57    1
   125    40    70    1
   126    40    50    1
   127    41    71    1
   128    41    49    1
