@<TRIPOS>MOLECULE
*****
 123 128 0 0 0
SMALL
GASTEIGER

@<TRIPOS>ATOM
     1 C         5.344214   0.800754   -0.89996 C.3        1 UNL1     0.0009
     2 C         6.64212   1.224943   -2.153969 C.2        1 UNL1     -0.0787
     3 C         7.703697   0.817354   -3.050056 C.2        1 UNL1     -0.0649
     4 C         8.548427   1.771607   -4.164591 C.2        1 UNL1     -0.0542
     5 C         9.350799   1.757619   -5.332102 C.2        1 UNL1     0.0115
     6 C         10.141394   0.837569   -6.302562 C.3        1 UNL1     -0.0348
     7 C         9.514699   3.111858   -6.178365 C.2        1 UNL1     0.2441
     8 O         10.514239   3.8149   -6.121988 O.2        1 UNL1     -0.2702
     9 N         8.548616   3.29969   -7.182136 N.am        1 UNL1     -0.2772
     10 C         7.445334   3.944636   -6.672101 C.2        1 UNL1     0.1049
     11 C         6.560321   3.183702   -6.054078 C.2        1 UNL1     0.0801
     12 C         6.761197   5.921263   -5.300156 C.ar        1 UNL1     0.0753
     13 C         5.973424   5.011773   -4.525011 C.ar        1 UNL1     0.0305
     14 C         5.745253   3.635331   -4.959057 C.2        1 UNL1     0.0924
     15 N         6.448454   1.844812   -6.016826 N.pl3        1 UNL1     -0.3170
     16 C         5.214928   1.525364   -5.348529 C.3        1 UNL1     0.1275
     17 N         4.971626   2.69426   -4.425377 N.2        1 UNL1     -0.2557
     18 C         4.106954   1.575377   -6.396191 C.3        1 UNL1     0.0016
     19 C         4.468467   0.631309   -7.531811 C.3        1 UNL1     0.0026
     20 N         4.619268   -0.713075   -6.992443 N.3        1 UNL1     -0.3018
     21 C         5.62084   -0.849136   -5.932864 C.3        1 UNL1     0.0026
     22 C         5.235531   0.104487   -4.800594 C.3        1 UNL1     0.0016
     23 C         4.667289   -1.731777   -8.02229 C.3        1 UNL1     0.0012
     24 C         4.168579   -1.167364   -9.361873 C.3        1 UNL1     -0.0339
     25 C         3.789682   0.317794   -9.240221 C.3        1 UNL1     -0.0615
     26 C         5.21233   -1.391301   -10.442251 C.3        1 UNL1     -0.0615
     27 C         6.874703   7.262878   -4.943358 C.ar        1 UNL1     0.1347
     28 C         6.217334   7.817411   -3.859656 C.ar        1 UNL1     0.0342
     29 C         5.486922   6.892955   -3.083098 C.ar        1 UNL1     0.1435
     30 C         5.393576   5.539029   -3.407741 C.ar        1 UNL1     0.0774
     31 O         4.703209   7.296398   -2.059362 O.3        1 UNL1     -0.4436
     32 C         3.797704   6.203574   -1.843332 C.3        1 UNL1     0.3143
     33 C         4.502952   4.987144   -2.408252 C.2        1 UNL1     0.2504
     34 C         6.089069   9.285654   -3.563158 C.3        1 UNL1     -0.0327
     35 O         3.696975   6.007348   -0.427493 O.2        1 UNL1     -0.4528
     36 C         0.20693   4.64809   0.189024 C.3        1 UNL1     0.0854
     37 C         -0.47974   3.358983   -0.406132 C.3        1 UNL1     0.0236
     38 C         -1.054469   2.334296   0.685401 C.3        1 UNL1     0.1131
     39 C         -0.128083   1.851112   1.873093 C.3        1 UNL1     0.0200
     40 C         1.457243   1.418952   1.586012 C.3        1 UNL1     0.0661
     41 C         1.993592   0.350758   0.382309 C.3        1 UNL1     0.0091
     42 C         3.554929   0.329977   -0.580602 C.3        1 UNL1     0.0661
     43 C         7.381041   5.408402   -6.547163 C.2        1 UNL1     0.2131
     44 O         7.726645   6.123262   -7.470348 O.2        1 UNL1     -0.2851
     45 O         7.697595   8.070939   -5.72523 O.3        1 UNL1     -0.5056
     46 O         4.374828   3.826169   -2.089543 O.2        1 UNL1     -0.2836
     47 C         6.000805   0.492389   0.472549 C.3        1 UNL1     -0.0566
     48 O         3.801041   -1.11665   -0.366562 O.3        1 UNL1     -0.3909
     49 C         0.866891   0.115777   -0.598928 C.3        1 UNL1     -0.0577
     50 O         2.302684   2.550358   1.639608 O.3        1 UNL1     -0.3910
     51 O         0.386994   4.660389   1.587186 O.3        1 UNL1     -0.3753
     52 C         0.23027   2.87145   -1.711179 C.3        1 UNL1     -0.0564
     53 O         -1.995412   1.313997   0.114487 O.3        1 UNL1     -0.4608
     54 C         -2.914541   0.591845   0.82977 C.2        1 UNL1     0.3042
     55 O         -3.886867   1.024014   1.447549 O.2        1 UNL1     -0.2512
     56 C         -2.690492   -0.892439   0.771314 C.3        1 UNL1     0.0332
     57 C         -0.428075   2.791157   3.13186 C.3        1 UNL1     -0.0567
     58 C         2.545082   6.497272   -2.701358 C.3        1 UNL1     0.0210
     59 C         0.430672   5.960016   2.174492 C.3        1 UNL1     0.0372
     60 C         1.521243   4.99674   -0.416108 C.2        1 UNL1     -0.0208
     61 C         2.665939   5.368795   0.158342 C.2        1 UNL1     0.0882
     62 H         5.049715   1.856878   -0.875753 H        1 UNL1     0.0365
     63 H         6.563472   2.31402   -2.167956 H        1 UNL1     0.0576
     64 H         7.951725   -0.235476   -3.20217 H        1 UNL1     0.0615
     65 H         8.294205   2.795303   -3.876666 H        1 UNL1     0.0622
     66 H         -0.473623   5.469954   -0.074474 H        1 UNL1     0.0645
     67 H         -1.410489   3.737739   -0.863091 H        1 UNL1     0.0362
     68 H         -1.818936   2.973362   1.153062 H        1 UNL1     0.0741
     69 H         -0.5472   0.947873   2.296071 H        1 UNL1     0.0359
     70 H         1.676067   0.865681   2.519323 H        1 UNL1     0.0600
     71 H         1.987947   -0.599806   0.950951 H        1 UNL1     0.0348
     72 H         3.753916   0.948744   0.306442 H        1 UNL1     0.0602
     73 H         1.419661   5.03765   -1.472165 H        1 UNL1     0.0628
     74 H         2.869852   5.301149   1.227491 H        1 UNL1     0.1022
     75 H         9.661433   0.826714   -7.310805 H        1 UNL1     0.0279
     76 H         11.16157   1.137038   -6.531969 H        1 UNL1     0.0279
     77 H         10.083453   -0.224704   -6.023424 H        1 UNL1     0.0279
     78 H         8.239839   2.395526   -7.533164 H        1 UNL1     0.1553
     79 H         6.880948   1.231029   -6.682523 H        1 UNL1     0.1484
     80 H         3.157516   1.291596   -5.926295 H        1 UNL1     0.0317
     81 H         3.975557   2.593343   -6.778462 H        1 UNL1     0.0317
     82 H         5.38167   0.953144   -8.053726 H        1 UNL1     0.0428
     83 H         3.666117   0.68387   -8.268372 H        1 UNL1     0.0428
     84 H         5.658141   -1.849446   -5.490371 H        1 UNL1     0.0428
     85 H         6.639841   -0.686152   -6.310209 H        1 UNL1     0.0428
     86 H         5.908954   -0.117212   -3.993539 H        1 UNL1     0.0317
     87 H         4.254343   -0.171789   -4.395578 H        1 UNL1     0.0317
     88 H         5.712134   -2.046483   -8.142927 H        1 UNL1     0.0429
     89 H         4.095087   -2.621653   -7.729922 H        1 UNL1     0.0429
     90 H         3.282369   -1.728849   -9.680587 H        1 UNL1     0.0308
     91 H         4.546201   0.960273   -9.700658 H        1 UNL1     0.0233
     92 H         2.82222   0.509393   -9.710237 H        1 UNL1     0.0233
     93 H         3.691601   0.639624   -8.196362 H        1 UNL1     0.0233
     94 H         5.201711   -0.560247   -11.155744 H        1 UNL1     0.0233
     95 H         6.209055   -1.438703   -9.994753 H        1 UNL1     0.0233
     96 H         5.026837   -2.319457   -10.990054 H        1 UNL1     0.0233
     97 H         5.429993   9.475251   -2.721195 H        1 UNL1     0.0280
     98 H         7.052784   9.740176   -3.298735 H        1 UNL1     0.0280
     99 H         5.681301   9.806027   -4.445219 H        1 UNL1     0.0280
     100 H         8.403449   7.616119   -6.15012 H        1 UNL1     0.2922
     101 H         5.694956   1.241145   1.202945 H        1 UNL1     0.0236
     102 H         7.084416   0.394036   0.416898 H        1 UNL1     0.0236
     103 H         5.652797   -0.466308   0.892053 H        1 UNL1     0.0236
     104 H         3.627456   -1.30913   0.575664 H        1 UNL1     0.2098
     105 H         0.689603   0.94019   -1.285021 H        1 UNL1     0.0234
     106 H         0.928495   -0.824688   -1.146337 H        1 UNL1     0.0234
     107 H         0.0   -0.0   0.0 H        1 UNL1     0.0234
     108 H         3.158716   2.291689   1.247094 H        1 UNL1     0.2098
     109 H         1.317833   3.025176   -1.675316 H        1 UNL1     0.0234
     110 H         0.015923   1.824747   -1.952447 H        1 UNL1     0.0234
     111 H         -0.119223   3.424843   -2.592971 H        1 UNL1     0.0234
     112 H         -1.887996   -1.175061   1.459406 H        1 UNL1     0.0342
     113 H         -3.600468   -1.452557   0.981207 H        1 UNL1     0.0342
     114 H         -2.367867   -1.150894   -0.246664 H        1 UNL1     0.0342
     115 H         -0.325828   2.247499   4.08116 H        1 UNL1     0.0234
     116 H         0.211285   3.67435   3.188753 H        1 UNL1     0.0234
     117 H         -1.477909   3.126384   3.190283 H        1 UNL1     0.0234
     118 H         1.689666   6.82795   -2.086605 H        1 UNL1     0.0309
     119 H         2.727064   7.23575   -3.488591 H        1 UNL1     0.0309
     120 H         2.162585   5.603595   -3.206476 H        1 UNL1     0.0309
     121 H         -0.259707   5.964208   3.017531 H        1 UNL1     0.0524
     122 H         1.43169   6.209707   2.56392 H        1 UNL1     0.0524
     123 H         0.138005   6.711425   1.446602 H        1 UNL1     0.0524
@<TRIPOS>BOND
     1     1     2    1
     2     1    42    1
     3     2     3    2
     4     3     4    1
     5     4     5    2
     6     5     7    1
     7     6    75    1
     8     6    76    1
     9     6    77    1
    10     7     9   am
    11     9    10    1
    12    10    11    2
    13    10    43    1
    14    11    14    1
    15    11    15    1
    16    12    13   ar
    17    12    27   ar
    18    12    43    1
    19    13    14    1
    20    13    30   ar
    21    14    17    2
    22    15    16    1
    23    16    17    1
    24    16    18    1
    25    16    22    1
    26    18    19    1
    27    19    20    1
    28    20    21    1
    29    21    22    1
    30    23    24    1
    31    23    88    1
    32    23    89    1
    33    24    25    1
    34    24    26    1
    35    24    90    1
    36    25    91    1
    37    25    92    1
    38    25    93    1
    39    26    94    1
    40    26    95    1
    41    26    96    1
    42    27    28   ar
    43    28    29   ar
    44    29    30   ar
    45    29    31    1
    46    30    33    1
    47    31    32    1
    48    32    33    1
    49    32    35    1
    50    34    97    1
    51    34    98    1
    52    34    99    1
    53    35    61    1
    54    36    37    1
    55    36    60    1
    56    37    38    1
    57    38    39    1
    58    39    40    1
    59    40    41    1
    60    41    42    1
    61    45   100    1
    62    47   101    1
    63    47   102    1
    64    47   103    1
    65    48   104    1
    66    49   105    1
    67    49   106    1
    68    49   107    1
    69    50   108    1
    70    51    59    1
    71    52   109    1
    72    52   110    1
    73    52   111    1
    74    53    54    1
    75    54    55    2
    76    54    56    1
    77    56   112    1
    78    56   113    1
    79    56   114    1
    80    57   115    1
    81    57   116    1
    82    57   117    1
    83    58   118    1
    84    58   119    1
    85    58   120    1
    86    59   121    1
    87    59   122    1
    88    59   123    1
    89    60    61    2
    90     1    47    1
    91     1    62    1
    92     2    63    1
    93     3    64    1
    94     4    65    1
    95     5     6    1
    96     7     8    2
    97     9    78    1
    98    15    79    1
    99    18    80    1
   100    18    81    1
   101    19    82    1
   102    19    83    1
   103    20    23    1
   104    21    84    1
   105    21    85    1
   106    22    86    1
   107    22    87    1
   108    27    45    1
   109    28    34    1
   110    32    58    1
   111    33    46    2
   112    36    51    1
   113    36    66    1
   114    37    52    1
   115    37    67    1
   116    38    53    1
   117    38    68    1
   118    42    48    1
   119    42    72    1
   120    43    44    2
   121    60    73    1
   122    61    74    1
   123    39    69    1
   124    39    57    1
   125    40    70    1
   126    40    50    1
   127    41    71    1
   128    41    49    1
