@<TRIPOS>MOLECULE
*****
 123 128 0 0 0
SMALL
GASTEIGER

@<TRIPOS>ATOM
     1 C         3.414871   -3.422719   -2.219095 C.3        1 UNL1     0.0009
     2 C         4.162025   -5.116083   -2.112718 C.2        1 UNL1     -0.0787
     3 C         5.187427   -6.007381   -1.612534 C.2        1 UNL1     -0.0649
     4 C         5.284188   -7.687921   -1.793585 C.2        1 UNL1     -0.0542
     5 C         5.856285   -8.879559   -1.283895 C.2        1 UNL1     0.0115
     6 C         6.919877   -9.442725   -0.301582 C.3        1 UNL1     -0.0348
     7 C         5.192674   -10.288392   -1.673508 C.2        1 UNL1     0.2441
     8 O         5.663893   -11.034194   -2.521008 O.2        1 UNL1     -0.2702
     9 N         4.185531   -10.7276   -0.796632 N.am        1 UNL1     -0.2772
     10 C         2.962173   -10.22985   -1.182588 C.2        1 UNL1     0.1049
     11 C         2.681703   -9.002012   -0.785132 C.2        1 UNL1     0.0801
     12 C         1.462938   -9.970877   -3.168176 C.ar        1 UNL1     0.0753
     13 C         1.358218   -8.588955   -2.810498 C.ar        1 UNL1     0.0305
     14 C         1.858886   -8.089469   -1.531868 C.2        1 UNL1     0.0924
     15 N         3.304605   -8.221914   0.11485 N.pl3        1 UNL1     -0.3170
     16 C         2.500547   -7.044245   0.306792 C.3        1 UNL1     0.1275
     17 N         1.760122   -6.875564   -0.997447 N.2        1 UNL1     -0.2557
     18 C         1.443386   -7.384108   1.353026 C.3        1 UNL1     0.0016
     19 C         2.143377   -7.877922   2.609111 C.3        1 UNL1     0.0026
     20 N         3.037438   -6.832748   3.08796 N.3        1 UNL1     -0.3018
     21 C         4.0521   -6.394318   2.127435 C.3        1 UNL1     0.0026
     22 C         3.326689   -5.898098   0.87546 C.3        1 UNL1     0.0016
     23 C         3.523551   -7.078152   4.431133 C.3        1 UNL1     0.0012
     24 C         2.637859   -6.362996   5.463537 C.3        1 UNL1     -0.0339
     25 C         1.185451   -6.245082   4.97296 C.3        1 UNL1     -0.0615
     26 C         2.719567   -7.07546   6.802379 C.3        1 UNL1     -0.0615
     27 C         0.877119   -10.461366   -4.332803 C.ar        1 UNL1     0.1347
     28 C         0.131013   -9.67723   -5.194491 C.ar        1 UNL1     0.0342
     29 C         0.082637   -8.310296   -4.847625 C.ar        1 UNL1     0.1435
     30 C         0.695001   -7.79792   -3.703203 C.ar        1 UNL1     0.0774
     31 O         -0.694857   -7.438203   -5.525831 O.3        1 UNL1     -0.4436
     32 C         -0.853609   -6.324456   -4.63407 C.3        1 UNL1     0.3143
     33 C         0.334387   -6.395539   -3.69608 C.2        1 UNL1     0.2504
     34 C         -0.731279   -10.178279   -6.319436 C.3        1 UNL1     -0.0327
     35 O         -0.700243   -5.130796   -5.411828 O.2        1 UNL1     -0.4528
     36 C         -2.852656   -2.502104   -3.71914 C.3        1 UNL1     0.0854
     37 C         -2.799281   -1.976702   -2.232996 C.3        1 UNL1     0.0236
     38 C         -2.633628   -0.388672   -2.08311 C.3        1 UNL1     0.1131
     39 C         -1.485138   0.358966   -2.873222 C.3        1 UNL1     0.0200
     40 C         0.051218   -0.28696   -2.942711 C.3        1 UNL1     0.0661
     41 C         0.957956   -0.838661   -1.619434 C.3        1 UNL1     0.0091
     42 C         2.191198   -2.191801   -1.503115 C.3        1 UNL1     0.0661
     43 C         2.139884   -10.882233   -2.212438 C.2        1 UNL1     0.2131
     44 O         1.962528   -12.086721   -2.190301 O.2        1 UNL1     -0.2851
     45 O         1.064786   -11.809443   -4.630977 O.3        1 UNL1     -0.5056
     46 O         0.875352   -5.494083   -3.09559 O.2        1 UNL1     -0.2836
     47 C         4.260754   -2.517889   -3.154907 C.3        1 UNL1     -0.0566
     48 O         3.189214   -1.37333   -0.77292 O.3        1 UNL1     -0.3909
     49 C         0.043177   -0.971289   -0.42232 C.3        1 UNL1     -0.0577
     50 O         0.164325   -1.196382   -4.01876 O.3        1 UNL1     -0.3910
     51 O         -2.57595   -1.548581   -4.71997 O.3        1 UNL1     -0.3753
     52 C         -2.065482   -2.981986   -1.286481 C.3        1 UNL1     -0.0564
     53 O         -2.935032   0.119017   -0.703352 O.3        1 UNL1     -0.4608
     54 C         -2.516911   1.318147   -0.188384 C.2        1 UNL1     0.3042
     55 O         -2.971163   1.909869   0.790063 O.2        1 UNL1     -0.2512
     56 C         -1.333147   1.901045   -0.90647 C.3        1 UNL1     0.0332
     57 C         -2.119639   0.92041   -4.229822 C.3        1 UNL1     -0.0567
     58 C         -2.14438   -6.592065   -3.825476 C.3        1 UNL1     0.0210
     59 C         -3.131688   -1.844951   -6.000277 C.3        1 UNL1     0.0372
     60 C         -1.990267   -3.6821   -4.000308 C.2        1 UNL1     -0.0208
     61 C         -1.171757   -3.930403   -5.023603 C.2        1 UNL1     0.0882
     62 H         2.606721   -3.838752   -2.832708 H        1 UNL1     0.0365
     63 H         3.514227   -5.667795   -2.797146 H        1 UNL1     0.0576
     64 H         5.942683   -5.668397   -0.899944 H        1 UNL1     0.0615
     65 H         4.552054   -7.908417   -2.57515 H        1 UNL1     0.0622
     66 H         -3.887747   -2.846615   -3.853096 H        1 UNL1     0.0645
     67 H         -3.826888   -2.126478   -1.858628 H        1 UNL1     0.0362
     68 H         -3.572931   -0.06051   -2.553793 H        1 UNL1     0.0741
     69 H         -1.316385   1.323107   -2.412394 H        1 UNL1     0.0359
     70 H         0.618063   0.604418   -3.273155 H        1 UNL1     0.0600
     71 H         1.513361   0.085816   -1.366797 H        1 UNL1     0.0348
     72 H         2.11245   -1.944299   -2.571692 H        1 UNL1     0.0602
     73 H         -2.19707   -4.443136   -3.28946 H        1 UNL1     0.0628
     74 H         -0.863419   -3.18826   -5.760752 H        1 UNL1     0.1022
     75 H         6.465766   -10.211108   0.36954 H        1 UNL1     0.0279
     76 H         7.752945   -9.98273   -0.745949 H        1 UNL1     0.0279
     77 H         7.264051   -8.694423   0.427313 H        1 UNL1     0.0279
     78 H         4.374579   -10.382017   0.141936 H        1 UNL1     0.1553
     79 H         3.932597   -8.571557   0.815071 H        1 UNL1     0.1484
     80 H         0.84051   -6.490617   1.555462 H        1 UNL1     0.0317
     81 H         0.754396   -8.148984   0.97898 H        1 UNL1     0.0317
     82 H         2.6906   -8.814873   2.428604 H        1 UNL1     0.0428
     83 H         1.3712   -8.116282   3.341215 H        1 UNL1     0.0428
     84 H         4.658232   -5.55492   2.482156 H        1 UNL1     0.0428
     85 H         4.786571   -7.18462   1.919368 H        1 UNL1     0.0428
     86 H         4.087226   -5.464604   0.252841 H        1 UNL1     0.0317
     87 H         2.686997   -5.043354   1.12706 H        1 UNL1     0.0317
     88 H         3.476648   -8.158764   4.619208 H        1 UNL1     0.0429
     89 H         4.574363   -6.7788   4.535807 H        1 UNL1     0.0429
     90 H         3.030951   -5.354167   5.636613 H        1 UNL1     0.0308
     91 H         1.004239   -5.277464   4.495488 H        1 UNL1     0.0233
     92 H         0.95067   -7.043726   4.26539 H        1 UNL1     0.0233
     93 H         0.45983   -6.337449   5.790136 H        1 UNL1     0.0233
     94 H         2.065876   -6.584997   7.531742 H        1 UNL1     0.0233
     95 H         2.387161   -8.111775   6.69505 H        1 UNL1     0.0233
     96 H         3.740196   -7.07101   7.195144 H        1 UNL1     0.0233
     97 H         -0.146788   -10.433286   -7.198396 H        1 UNL1     0.0280
     98 H         -1.278038   -11.090491   -6.047075 H        1 UNL1     0.0280
     99 H         -1.458508   -9.399576   -6.602022 H        1 UNL1     0.0280
     100 H         0.679156   -12.404625   -4.012373 H        1 UNL1     0.2922
     101 H         4.740908   -3.127407   -3.920149 H        1 UNL1     0.0236
     102 H         4.976817   -1.896607   -2.618021 H        1 UNL1     0.0236
     103 H         3.63552   -1.804267   -3.717063 H        1 UNL1     0.0236
     104 H         3.854931   -1.07187   -1.421697 H        1 UNL1     0.2098
     105 H         -0.97239   -1.274226   -0.664525 H        1 UNL1     0.0234
     106 H         0.437972   -1.585885   0.386591 H        1 UNL1     0.0234
     107 H         0.0   0.0   0.0 H        1 UNL1     0.0234
     108 H         1.098417   -1.193835   -4.303776 H        1 UNL1     0.2098
     109 H         -1.772072   -2.518318   -0.334307 H        1 UNL1     0.0234
     110 H         -2.64648   -3.88919   -1.088577 H        1 UNL1     0.0234
     111 H         -1.134833   -3.35443   -1.734949 H        1 UNL1     0.0234
     112 H         -1.666161   2.430067   -1.80457 H        1 UNL1     0.0342
     113 H         -0.745172   2.554389   -0.263608 H        1 UNL1     0.0342
     114 H         -0.683296   1.074072   -1.224235 H        1 UNL1     0.0342
     115 H         -3.153748   0.576642   -4.369932 H        1 UNL1     0.0234
     116 H         -2.123363   2.009919   -4.300582 H        1 UNL1     0.0234
     117 H         -1.637518   0.521731   -5.138973 H        1 UNL1     0.0234
     118 H         -3.02836   -6.117903   -4.286732 H        1 UNL1     0.0309
     119 H         -2.345722   -7.657849   -3.677936 H        1 UNL1     0.0309
     120 H         -2.113026   -6.147985   -2.824519 H        1 UNL1     0.0309
     121 H         -2.329527   -2.236473   -6.625261 H        1 UNL1     0.0524
     122 H         -3.917591   -2.616656   -5.946755 H        1 UNL1     0.0524
     123 H         -3.549461   -0.946562   -6.445762 H        1 UNL1     0.0524
@<TRIPOS>BOND
     1     1     2    1
     2     1    42    1
     3     2     3    2
     4     3     4    1
     5     4     5    2
     6     5     7    1
     7     6    75    1
     8     6    76    1
     9     6    77    1
    10     7     9   am
    11     9    10    1
    12    10    11    2
    13    10    43    1
    14    11    14    1
    15    11    15    1
    16    12    13   ar
    17    12    27   ar
    18    12    43    1
    19    13    14    1
    20    13    30   ar
    21    14    17    2
    22    15    16    1
    23    16    17    1
    24    16    18    1
    25    16    22    1
    26    18    19    1
    27    19    20    1
    28    20    21    1
    29    21    22    1
    30    23    24    1
    31    23    88    1
    32    23    89    1
    33    24    25    1
    34    24    26    1
    35    24    90    1
    36    25    91    1
    37    25    92    1
    38    25    93    1
    39    26    94    1
    40    26    95    1
    41    26    96    1
    42    27    28   ar
    43    28    29   ar
    44    29    30   ar
    45    29    31    1
    46    30    33    1
    47    31    32    1
    48    32    33    1
    49    32    35    1
    50    34    97    1
    51    34    98    1
    52    34    99    1
    53    35    61    1
    54    36    37    1
    55    36    60    1
    56    37    38    1
    57    38    39    1
    58    39    40    1
    59    40    41    1
    60    41    42    1
    61    45   100    1
    62    47   101    1
    63    47   102    1
    64    47   103    1
    65    48   104    1
    66    49   105    1
    67    49   106    1
    68    49   107    1
    69    50   108    1
    70    51    59    1
    71    52   109    1
    72    52   110    1
    73    52   111    1
    74    53    54    1
    75    54    55    2
    76    54    56    1
    77    56   112    1
    78    56   113    1
    79    56   114    1
    80    57   115    1
    81    57   116    1
    82    57   117    1
    83    58   118    1
    84    58   119    1
    85    58   120    1
    86    59   121    1
    87    59   122    1
    88    59   123    1
    89    60    61    2
    90     1    47    1
    91     1    62    1
    92     2    63    1
    93     3    64    1
    94     4    65    1
    95     5     6    1
    96     7     8    2
    97     9    78    1
    98    15    79    1
    99    18    80    1
   100    18    81    1
   101    19    82    1
   102    19    83    1
   103    20    23    1
   104    21    84    1
   105    21    85    1
   106    22    86    1
   107    22    87    1
   108    27    45    1
   109    28    34    1
   110    32    58    1
   111    33    46    2
   112    36    51    1
   113    36    66    1
   114    37    52    1
   115    37    67    1
   116    38    53    1
   117    38    68    1
   118    42    48    1
   119    42    72    1
   120    43    44    2
   121    60    73    1
   122    61    74    1
   123    39    69    1
   124    39    57    1
   125    40    70    1
   126    40    50    1
   127    41    71    1
   128    41    49    1
