@<TRIPOS>MOLECULE
*****
 123 128 0 0 0
SMALL
GASTEIGER

@<TRIPOS>ATOM
     1 C         5.167266   1.747827   0.493697 C.3        1 UNL1     0.0009
     2 C         6.604377   2.553999   -0.355912 C.2        1 UNL1     -0.0787
     3 C         7.886474   2.455837   -1.021222 C.2        1 UNL1     -0.0649
     4 C         8.764379   3.691078   -1.776086 C.2        1 UNL1     -0.0542
     5 C         9.78478   3.98388   -2.714236 C.2        1 UNL1     0.0115
     6 C         10.913186   3.358551   -3.579677 C.3        1 UNL1     -0.0348
     7 C         9.880561   5.467325   -3.320212 C.2        1 UNL1     0.2441
     8 O         10.704439   6.288718   -2.941973 O.2        1 UNL1     -0.2702
     9 N         9.130783   5.6748   -4.491082 N.am        1 UNL1     -0.2772
     10 C         7.848018   6.061575   -4.177649 C.2        1 UNL1     0.1049
     11 C         7.001979   5.090195   -3.886337 C.2        1 UNL1     0.0801
     12 C         6.549379   7.667955   -2.766829 C.ar        1 UNL1     0.0753
     13 C         5.789989   6.540007   -2.319984 C.ar        1 UNL1     0.0305
     14 C         5.906945   5.234504   -2.965766 C.2        1 UNL1     0.0924
     15 N         7.12445   3.761251   -4.045828 N.pl3        1 UNL1     -0.3170
     16 C         5.854387   3.162173   -3.732298 C.3        1 UNL1     0.1275
     17 N         5.217791   4.117178   -2.752281 N.2        1 UNL1     -0.2557
     18 C         5.001992   3.221798   -4.996248 C.3        1 UNL1     0.0016
     19 C         5.757164   2.537966   -6.124823 C.3        1 UNL1     0.0026
     20 N         6.026957   1.159694   -5.739329 N.3        1 UNL1     -0.3018
     21 C         6.789853   0.998767   -4.499789 C.3        1 UNL1     0.0026
     22 C         6.010821   1.689033   -3.378836 C.3        1 UNL1     0.0016
     23 C         6.471726   0.340458   -6.849138 C.3        1 UNL1     0.0012
     24 C         5.316587   0.091489   -7.831699 C.3        1 UNL1     -0.0339
     25 C         5.342707   1.095052   -8.996274 C.3        1 UNL1     -0.0615
     26 C         5.355934   -1.343058   -8.328999 C.3        1 UNL1     -0.0615
     27 C         6.344726   8.9355   -2.226863 C.ar        1 UNL1     0.1347
     28 C         5.385373   9.204878   -1.267109 C.ar        1 UNL1     0.0342
     29 C         4.683474   8.070383   -0.807299 C.ar        1 UNL1     0.1435
     30 C         4.902895   6.78849   -1.313091 C.ar        1 UNL1     0.0774
     31 O         3.642202   8.183828   0.045865 O.3        1 UNL1     -0.4436
     32 C         2.920383   6.951167   -0.096955 C.3        1 UNL1     0.3143
     33 C         3.933711   5.958081   -0.629081 C.2        1 UNL1     0.2504
     34 C         4.938592   10.570905   -0.826137 C.3        1 UNL1     -0.0327
     35 O         2.559222   6.514089   1.219015 O.2        1 UNL1     -0.4528
     36 C         -0.683987   4.582537   0.820523 C.3        1 UNL1     0.0854
     37 C         -0.989178   3.322295   -0.077347 C.3        1 UNL1     0.0236
     38 C         -1.590201   2.061086   0.70997 C.3        1 UNL1     0.1131
     39 C         -0.864974   1.529613   2.011451 C.3        1 UNL1     0.0200
     40 C         0.796182   1.383797   2.053142 C.3        1 UNL1     0.0661
     41 C         1.755833   0.615199   0.884409 C.3        1 UNL1     0.0091
     42 C         3.46367   0.977674   0.321109 C.3        1 UNL1     0.0661
     43 C         7.499773   7.46047   -3.887525 C.2        1 UNL1     0.2131
     44 O         7.900043   8.358719   -4.605627 O.2        1 UNL1     -0.2851
     45 O         7.157311   9.97063   -2.684738 O.3        1 UNL1     -0.5056
     46 O         3.949468   4.754502   -0.498688 O.2        1 UNL1     -0.2836
     47 C         5.563069   1.317824   1.931897 C.3        1 UNL1     -0.0566
     48 O         3.911985   -0.433528   0.402593 O.3        1 UNL1     -0.3909
     49 C         0.922033   0.383138   -0.355921 C.3        1 UNL1     -0.0577
     50 O         1.396437   2.601439   2.446544 O.3        1 UNL1     -0.3910
     51 O         -0.808579   4.392435   2.211843 O.3        1 UNL1     -0.3753
     52 C         0.055644   3.16203   -1.229566 C.3        1 UNL1     -0.0564
     53 O         -2.19266   1.022485   -0.190406 O.3        1 UNL1     -0.4608
     54 C         -2.414896   -0.28768   0.144269 C.2        1 UNL1     0.3042
     55 O         -1.842492   -1.280401   -0.303724 O.2        1 UNL1     -0.2512
     56 C         -3.44453   -0.46639   1.22345 C.3        1 UNL1     0.0332
     57 C         -1.586325   2.198318   3.272665 C.3        1 UNL1     -0.0567
     58 C         1.845594   7.196773   -1.181408 C.3        1 UNL1     0.0210
     59 C         -1.152763   5.564893   2.948555 C.3        1 UNL1     0.0372
     60 C         0.645186   5.211485   0.590558 C.2        1 UNL1     -0.0208
     61 C         1.557896   5.646297   1.460411 C.2        1 UNL1     0.0882
     62 H         4.691472   2.732047   0.581116 H        1 UNL1     0.0365
     63 H         6.338261   3.607807   -0.250364 H        1 UNL1     0.0576
     64 H         8.34405   1.488985   -1.242421 H        1 UNL1     0.0615
     65 H         8.277324   4.606442   -1.429142 H        1 UNL1     0.0622
     66 H         -1.428414   5.329281   0.510286 H        1 UNL1     0.0645
     67 H         -1.854472   3.631991   -0.688833 H        1 UNL1     0.0362
     68 H         -2.53732   2.498002   1.061527 H        1 UNL1     0.0741
     69 H         -1.196723   0.518507   2.206423 H        1 UNL1     0.0359
     70 H         0.907557   0.723171   2.934182 H        1 UNL1     0.0600
     71 H         1.79911   -0.406108   1.311045 H        1 UNL1     0.0348
     72 H         3.357538   1.465588   1.300901 H        1 UNL1     0.0602
     73 H         0.76346   5.40904   -0.445894 H        1 UNL1     0.0628
     74 H         1.539959   5.435301   2.530175 H        1 UNL1     0.1022
     75 H         10.957439   2.253218   -3.426991 H        1 UNL1     0.0279
     76 H         10.799927   3.441696   -4.658254 H        1 UNL1     0.0279
     77 H         11.9182   3.662993   -3.252626 H        1 UNL1     0.0279
     78 H         9.068819   4.805025   -5.016182 H        1 UNL1     0.1553
     79 H         7.789858   3.333347   -4.663131 H        1 UNL1     0.1484
     80 H         4.040568   2.730957   -4.802587 H        1 UNL1     0.0317
     81 H         4.77564   4.258672   -5.267004 H        1 UNL1     0.0317
     82 H         6.687994   3.069196   -6.372333 H        1 UNL1     0.0428
     83 H         5.132317   2.593487   -7.01675 H        1 UNL1     0.0428
     84 H         6.909904   -0.0443   -4.190904 H        1 UNL1     0.0428
     85 H         7.820039   1.366667   -4.60315 H        1 UNL1     0.0428
     86 H         6.526902   1.438306   -2.47066 H        1 UNL1     0.0317
     87 H         5.031258   1.211515   -3.25422 H        1 UNL1     0.0317
     88 H         7.268051   0.882291   -7.375995 H        1 UNL1     0.0429
     89 H         6.904054   -0.605493   -6.498361 H        1 UNL1     0.0429
     90 H         4.363566   0.198185   -7.300117 H        1 UNL1     0.0308
     91 H         6.292985   1.05234   -9.536875 H        1 UNL1     0.0233
     92 H         4.524474   0.899358   -9.693274 H        1 UNL1     0.0233
     93 H         5.215323   2.130566   -8.658161 H        1 UNL1     0.0233
     94 H         4.659912   -1.472267   -9.164878 H        1 UNL1     0.0233
     95 H         6.360386   -1.587383   -8.685853 H        1 UNL1     0.0233
     96 H         5.081188   -2.047095   -7.538547 H        1 UNL1     0.0233
     97 H         4.145   10.521025   -0.086574 H        1 UNL1     0.0280
     98 H         5.751279   11.140675   -0.356925 H        1 UNL1     0.0280
     99 H         4.565292   11.135765   -1.696008 H        1 UNL1     0.0280
     100 H         6.690502   10.721152   -3.007892 H        1 UNL1     0.2922
     101 H         4.70002   0.884166   2.436618 H        1 UNL1     0.0236
     102 H         6.013785   2.12292   2.511256 H        1 UNL1     0.0236
     103 H         6.319192   0.515035   1.930802 H        1 UNL1     0.0236
     104 H         4.33121   -0.559849   1.276243 H        1 UNL1     0.2098
     105 H         0.709718   1.282178   -0.929037 H        1 UNL1     0.0234
     106 H         1.291514   -0.404742   -1.012164 H        1 UNL1     0.0234
     107 H         0.0   -0.0   0.0 H        1 UNL1     0.0234
     108 H         1.19822   3.259933   1.753101 H        1 UNL1     0.2098
     109 H         1.080336   3.048278   -0.849067 H        1 UNL1     0.0234
     110 H         -0.176703   2.335173   -1.90932 H        1 UNL1     0.0234
     111 H         0.07719   4.045038   -1.882083 H        1 UNL1     0.0234
     112 H         -3.567545   -1.530255   1.447957 H        1 UNL1     0.0342
     113 H         -3.197663   0.096608   2.122301 H        1 UNL1     0.0342
     114 H         -4.405087   -0.088332   0.847195 H        1 UNL1     0.0342
     115 H         -2.656   1.950198   3.310341 H        1 UNL1     0.0234
     116 H         -1.150228   1.918198   4.233603 H        1 UNL1     0.0234
     117 H         -1.624735   3.300194   3.224358 H        1 UNL1     0.0234
     118 H         0.94446   7.683695   -0.769253 H        1 UNL1     0.0309
     119 H         2.215334   7.784954   -2.027302 H        1 UNL1     0.0309
     120 H         1.457018   6.265003   -1.606754 H        1 UNL1     0.0309
     121 H         -0.348375   6.287366   2.813095 H        1 UNL1     0.0524
     122 H         -2.08273   6.030998   2.58257 H        1 UNL1     0.0524
     123 H         -1.268833   5.326298   4.001975 H        1 UNL1     0.0524
@<TRIPOS>BOND
     1     1     2    1
     2     1    42    1
     3     2     3    2
     4     3     4    1
     5     4     5    2
     6     5     7    1
     7     6    75    1
     8     6    76    1
     9     6    77    1
    10     7     9   am
    11     9    10    1
    12    10    11    2
    13    10    43    1
    14    11    14    1
    15    11    15    1
    16    12    13   ar
    17    12    27   ar
    18    12    43    1
    19    13    14    1
    20    13    30   ar
    21    14    17    2
    22    15    16    1
    23    16    17    1
    24    16    18    1
    25    16    22    1
    26    18    19    1
    27    19    20    1
    28    20    21    1
    29    21    22    1
    30    23    24    1
    31    23    88    1
    32    23    89    1
    33    24    25    1
    34    24    26    1
    35    24    90    1
    36    25    91    1
    37    25    92    1
    38    25    93    1
    39    26    94    1
    40    26    95    1
    41    26    96    1
    42    27    28   ar
    43    28    29   ar
    44    29    30   ar
    45    29    31    1
    46    30    33    1
    47    31    32    1
    48    32    33    1
    49    32    35    1
    50    34    97    1
    51    34    98    1
    52    34    99    1
    53    35    61    1
    54    36    37    1
    55    36    60    1
    56    37    38    1
    57    38    39    1
    58    39    40    1
    59    40    41    1
    60    41    42    1
    61    45   100    1
    62    47   101    1
    63    47   102    1
    64    47   103    1
    65    48   104    1
    66    49   105    1
    67    49   106    1
    68    49   107    1
    69    50   108    1
    70    51    59    1
    71    52   109    1
    72    52   110    1
    73    52   111    1
    74    53    54    1
    75    54    55    2
    76    54    56    1
    77    56   112    1
    78    56   113    1
    79    56   114    1
    80    57   115    1
    81    57   116    1
    82    57   117    1
    83    58   118    1
    84    58   119    1
    85    58   120    1
    86    59   121    1
    87    59   122    1
    88    59   123    1
    89    60    61    2
    90     1    47    1
    91     1    62    1
    92     2    63    1
    93     3    64    1
    94     4    65    1
    95     5     6    1
    96     7     8    2
    97     9    78    1
    98    15    79    1
    99    18    80    1
   100    18    81    1
   101    19    82    1
   102    19    83    1
   103    20    23    1
   104    21    84    1
   105    21    85    1
   106    22    86    1
   107    22    87    1
   108    27    45    1
   109    28    34    1
   110    32    58    1
   111    33    46    2
   112    36    51    1
   113    36    66    1
   114    37    52    1
   115    37    67    1
   116    38    53    1
   117    38    68    1
   118    42    48    1
   119    42    72    1
   120    43    44    2
   121    60    73    1
   122    61    74    1
   123    39    69    1
   124    39    57    1
   125    40    70    1
   126    40    50    1
   127    41    71    1
   128    41    49    1
