@<TRIPOS>MOLECULE
*****
 123 128 0 0 0
SMALL
GASTEIGER

@<TRIPOS>ATOM
     1 C         5.134217   1.832213   0.542743 C.3        1 UNL1     0.0009
     2 C         6.550826   2.695005   -0.285415 C.2        1 UNL1     -0.0787
     3 C         7.836927   2.645926   -0.948424 C.2        1 UNL1     -0.0649
     4 C         8.682455   3.920188   -1.674852 C.2        1 UNL1     -0.0542
     5 C         9.696911   4.260275   -2.603452 C.2        1 UNL1     0.0115
     6 C         10.844458   3.684246   -3.477894 C.3        1 UNL1     -0.0348
     7 C         9.75337   5.757994   -3.178464 C.2        1 UNL1     0.2441
     8 O         10.55326   6.593761   -2.780725 O.2        1 UNL1     -0.2702
     9 N         9.001306   5.968897   -4.347254 N.am        1 UNL1     -0.2772
     10 C         7.707523   6.313668   -4.030109 C.2        1 UNL1     0.1049
     11 C         6.887818   5.313564   -3.761601 C.2        1 UNL1     0.0801
     12 C         6.361284   7.854218   -2.590776 C.ar        1 UNL1     0.0753
     13 C         5.632094   6.696811   -2.169707 C.ar        1 UNL1     0.0305
     14 C         5.786749   5.408638   -2.841827 C.2        1 UNL1     0.0924
     15 N         7.047323   3.992071   -3.947999 N.pl3        1 UNL1     -0.3170
     16 C         5.793428   3.351921   -3.650999 C.3        1 UNL1     0.1275
     17 N         5.128102   4.268599   -2.653621 N.2        1 UNL1     -0.2557
     18 C         4.943115   3.41416   -4.916225 C.3        1 UNL1     0.0016
     19 C         5.719892   2.774826   -6.056163 C.3        1 UNL1     0.0026
     20 N         6.026558   1.396832   -5.698231 N.3        1 UNL1     -0.3018
     21 C         6.790267   1.231392   -4.459786 C.3        1 UNL1     0.0026
     22 C         5.989482   1.876657   -3.327412 C.3        1 UNL1     0.0016
     23 C         6.496736   0.613245   -6.823205 C.3        1 UNL1     0.0012
     24 C         5.35155   0.35293   -7.814437 C.3        1 UNL1     -0.0339
     25 C         5.700335   0.861596   -9.222863 C.3        1 UNL1     -0.0615
     26 C         4.997763   -1.12406   -7.825231 C.3        1 UNL1     -0.0615
     27 C         6.120298   9.104228   -2.025516 C.ar        1 UNL1     0.1347
     28 C         5.151303   9.32722   -1.063553 C.ar        1 UNL1     0.0342
     29 C         4.479727   8.164584   -0.62947 C.ar        1 UNL1     0.1435
     30 C         4.73578   6.899936   -1.160809 C.ar        1 UNL1     0.0774
     31 O         3.433432   8.231684   0.222452 O.3        1 UNL1     -0.4436
     32 C         2.746272   6.982839   0.051952 C.3        1 UNL1     0.3143
     33 C         3.788032   6.029218   -0.497189 C.2        1 UNL1     0.2504
     34 C         4.665832   10.671035   -0.596027 C.3        1 UNL1     -0.0327
     35 O         2.393766   6.508899   1.357468 O.2        1 UNL1     -0.4528
     36 C         -0.793851   4.49747   0.908761 C.3        1 UNL1     0.0854
     37 C         -1.061753   3.248122   -0.015835 C.3        1 UNL1     0.0236
     38 C         -1.629877   1.954857   0.743406 C.3        1 UNL1     0.1131
     39 C         -0.893769   1.416775   2.036032 C.3        1 UNL1     0.0200
     40 C         0.770658   1.315897   2.080124 C.3        1 UNL1     0.0661
     41 C         1.754282   0.598304   0.898958 C.3        1 UNL1     0.0091
     42 C         3.452981   1.019199   0.3488 C.3        1 UNL1     0.0661
     43 C         7.32005   7.696158   -3.712403 C.2        1 UNL1     0.2131
     44 O         7.697322   8.619724   -4.410565 O.2        1 UNL1     -0.2851
     45 O         6.905252   10.170564   -2.459349 O.3        1 UNL1     -0.5056
     46 O         3.836628   4.824092   -0.391535 O.2        1 UNL1     -0.2836
     47 C         5.537861   1.38365   1.973073 C.3        1 UNL1     -0.0566
     48 O         3.939827   -0.380513   0.402693 O.3        1 UNL1     -0.3909
     49 C         0.930538   0.369055   -0.348594 C.3        1 UNL1     -0.0577
     50 O         1.336041   2.541211   2.500447 O.3        1 UNL1     -0.3910
     51 O         -0.916894   4.275314   2.295462 O.3        1 UNL1     -0.3753
     52 C         -0.009813   3.140504   -1.167699 C.3        1 UNL1     -0.0564
     53 O         -2.201038   0.91889   -0.180105 O.3        1 UNL1     -0.4608
     54 C         -2.369095   -0.407664   0.119795 C.2        1 UNL1     0.3042
     55 O         -1.667013   -1.35036   -0.243857 O.2        1 UNL1     -0.2512
     56 C         -3.523062   -0.67378   1.044055 C.3        1 UNL1     0.0332
     57 C         -1.636678   2.039181   3.30838 C.3        1 UNL1     -0.0567
     58 C         1.668038   7.221122   -1.030713 C.3        1 UNL1     0.0210
     59 C         -1.26454   5.429522   3.058884 C.3        1 UNL1     0.0372
     60 C         0.518083   5.167374   0.696114 C.2        1 UNL1     -0.0208
     61 C         1.416111   5.609079   1.577697 C.2        1 UNL1     0.0882
     62 H         4.631225   2.800951   0.648842 H        1 UNL1     0.0365
     63 H         6.255463   3.738685   -0.159076 H        1 UNL1     0.0576
     64 H         8.321588   1.696808   -1.187977 H        1 UNL1     0.0615
     65 H         8.169408   4.81444   -1.310738 H        1 UNL1     0.0622
     66 H         -1.557754   5.229694   0.61153 H        1 UNL1     0.0645
     67 H         -1.933611   3.546452   -0.623636 H        1 UNL1     0.0362
     68 H         -2.589628   2.358189   1.100791 H        1 UNL1     0.0741
     69 H         -1.198027   0.39311   2.209079 H        1 UNL1     0.0359
     70 H         0.897842   0.64053   2.947744 H        1 UNL1     0.0600
     71 H         1.824564   -0.430019   1.30463 H        1 UNL1     0.0348
     72 H         3.330798   1.483666   1.338071 H        1 UNL1     0.0602
     73 H         0.633649   5.389476   -0.335662 H        1 UNL1     0.0628
     74 H         1.401124   5.375618   2.64283 H        1 UNL1     0.1022
     75 H         10.86798   2.56989   -3.409391 H        1 UNL1     0.0279
     76 H         10.768242   3.851487   -4.549944 H        1 UNL1     0.0279
     77 H         11.84227   3.946015   -3.096388 H        1 UNL1     0.0279
     78 H         8.964767   5.108778   -4.890336 H        1 UNL1     0.1553
     79 H         7.725937   3.595483   -4.571805 H        1 UNL1     0.1484
     80 H         3.995077   2.893152   -4.735835 H        1 UNL1     0.0317
     81 H         4.68898   4.449783   -5.166327 H        1 UNL1     0.0317
     82 H         6.636378   3.336471   -6.289659 H        1 UNL1     0.0428
     83 H         5.096152   2.831542   -6.94879 H        1 UNL1     0.0428
     84 H         6.93821   0.185866   -4.172036 H        1 UNL1     0.0428
     85 H         7.810189   1.62956   -4.5522 H        1 UNL1     0.0428
     86 H         6.509838   1.621522   -2.42291 H        1 UNL1     0.0317
     87 H         5.023131   1.36989   -3.215837 H        1 UNL1     0.0317
     88 H         7.279228   1.187554   -7.336207 H        1 UNL1     0.0429
     89 H         6.954044   -0.327493   -6.490557 H        1 UNL1     0.0429
     90 H         4.451208   0.87406   -7.467994 H        1 UNL1     0.0308
     91 H         6.710397   0.559904   -9.515879 H        1 UNL1     0.0233
     92 H         4.985784   0.483866   -9.957945 H        1 UNL1     0.0233
     93 H         5.662036   1.955405   -9.29322 H        1 UNL1     0.0233
     94 H         4.402466   -1.363372   -8.713031 H        1 UNL1     0.0233
     95 H         5.909856   -1.726507   -7.858491 H        1 UNL1     0.0233
     96 H         4.422566   -1.40311   -6.937961 H        1 UNL1     0.0233
     97 H         3.817549   10.586385   0.076639 H        1 UNL1     0.0280
     98 H         5.437266   11.21903   -0.039388 H        1 UNL1     0.0280
     99 H         4.358623   11.275324   -1.465253 H        1 UNL1     0.0280
     100 H         6.421101   10.941427   -2.698076 H        1 UNL1     0.2922
     101 H         4.659735   1.018932   2.50555 H        1 UNL1     0.0236
     102 H         6.063494   2.156824   2.532444 H        1 UNL1     0.0236
     103 H         6.231912   0.526762   1.957962 H        1 UNL1     0.0236
     104 H         4.272566   -0.542448   1.307144 H        1 UNL1     0.2098
     105 H         0.735774   1.26708   -0.92948 H        1 UNL1     0.0234
     106 H         1.296683   -0.427632   -0.996015 H        1 UNL1     0.0234
     107 H         0.0   -0.0   0.0 H        1 UNL1     0.0234
     108 H         1.176133   3.193002   1.790965 H        1 UNL1     0.2098
     109 H         1.017709   3.059591   -0.786433 H        1 UNL1     0.0234
     110 H         -0.210589   2.314209   -1.858111 H        1 UNL1     0.0234
     111 H         -0.019494   4.031746   -1.809213 H        1 UNL1     0.0234
     112 H         -3.588456   -1.744711   1.258945 H        1 UNL1     0.0342
     113 H         -3.45346   -0.094343   1.963431 H        1 UNL1     0.0342
     114 H         -4.448445   -0.375897   0.532102 H        1 UNL1     0.0342
     115 H         -2.720332   1.860701   3.276346 H        1 UNL1     0.0234
     116 H         -1.269918   1.662025   4.265088 H        1 UNL1     0.0234
     117 H         -1.603201   3.141778   3.341561 H        1 UNL1     0.0234
     118 H         0.653706   7.2831   -0.599094 H        1 UNL1     0.0309
     119 H         1.855565   8.114715   -1.634474 H        1 UNL1     0.0309
     120 H         1.591122   6.388004   -1.737894 H        1 UNL1     0.0309
     121 H         -0.891431   5.279607   4.071638 H        1 UNL1     0.0524
     122 H         -0.7973   6.347649   2.66548 H        1 UNL1     0.0524
     123 H         -2.34285   5.560526   3.072241 H        1 UNL1     0.0524
@<TRIPOS>BOND
     1     1     2    1
     2     1    42    1
     3     2     3    2
     4     3     4    1
     5     4     5    2
     6     5     7    1
     7     6    75    1
     8     6    76    1
     9     6    77    1
    10     7     9   am
    11     9    10    1
    12    10    11    2
    13    10    43    1
    14    11    14    1
    15    11    15    1
    16    12    13   ar
    17    12    27   ar
    18    12    43    1
    19    13    14    1
    20    13    30   ar
    21    14    17    2
    22    15    16    1
    23    16    17    1
    24    16    18    1
    25    16    22    1
    26    18    19    1
    27    19    20    1
    28    20    21    1
    29    21    22    1
    30    23    24    1
    31    23    88    1
    32    23    89    1
    33    24    25    1
    34    24    26    1
    35    24    90    1
    36    25    91    1
    37    25    92    1
    38    25    93    1
    39    26    94    1
    40    26    95    1
    41    26    96    1
    42    27    28   ar
    43    28    29   ar
    44    29    30   ar
    45    29    31    1
    46    30    33    1
    47    31    32    1
    48    32    33    1
    49    32    35    1
    50    34    97    1
    51    34    98    1
    52    34    99    1
    53    35    61    1
    54    36    37    1
    55    36    60    1
    56    37    38    1
    57    38    39    1
    58    39    40    1
    59    40    41    1
    60    41    42    1
    61    45   100    1
    62    47   101    1
    63    47   102    1
    64    47   103    1
    65    48   104    1
    66    49   105    1
    67    49   106    1
    68    49   107    1
    69    50   108    1
    70    51    59    1
    71    52   109    1
    72    52   110    1
    73    52   111    1
    74    53    54    1
    75    54    55    2
    76    54    56    1
    77    56   112    1
    78    56   113    1
    79    56   114    1
    80    57   115    1
    81    57   116    1
    82    57   117    1
    83    58   118    1
    84    58   119    1
    85    58   120    1
    86    59   121    1
    87    59   122    1
    88    59   123    1
    89    60    61    2
    90     1    47    1
    91     1    62    1
    92     2    63    1
    93     3    64    1
    94     4    65    1
    95     5     6    1
    96     7     8    2
    97     9    78    1
    98    15    79    1
    99    18    80    1
   100    18    81    1
   101    19    82    1
   102    19    83    1
   103    20    23    1
   104    21    84    1
   105    21    85    1
   106    22    86    1
   107    22    87    1
   108    27    45    1
   109    28    34    1
   110    32    58    1
   111    33    46    2
   112    36    51    1
   113    36    66    1
   114    37    52    1
   115    37    67    1
   116    38    53    1
   117    38    68    1
   118    42    48    1
   119    42    72    1
   120    43    44    2
   121    60    73    1
   122    61    74    1
   123    39    69    1
   124    39    57    1
   125    40    70    1
   126    40    50    1
   127    41    71    1
   128    41    49    1
