@<TRIPOS>MOLECULE
*****
 123 128 0 0 0
SMALL
GASTEIGER

@<TRIPOS>ATOM
     1 C         4.75031   2.629601   -0.720434 C.3        1 UNL1     0.0009
     2 C         6.217978   2.875692   -1.826068 C.2        1 UNL1     -0.0787
     3 C         7.603961   2.612121   -2.15107 C.2        1 UNL1     -0.0649
     4 C         8.459062   3.093881   -3.530588 C.2        1 UNL1     -0.0542
     5 C         9.595445   2.843268   -4.338613 C.2        1 UNL1     0.0115
     6 C         10.929123   2.050843   -4.420395 C.3        1 UNL1     -0.0348
     7 C         9.631148   3.42996   -5.832436 C.2        1 UNL1     0.2441
     8 O         10.270625   4.426149   -6.140982 O.2        1 UNL1     -0.2702
     9 N         9.093059   2.578158   -6.812765 N.am        1 UNL1     -0.2772
     10 C         7.738632   2.785745   -6.938301 C.2        1 UNL1     0.1049
     11 C         6.970417   2.159114   -6.065718 C.2        1 UNL1     0.0801
     12 C         6.024934   4.587422   -7.211308 C.ar        1 UNL1     0.0753
     13 C         5.33037   3.984543   -6.11462 C.ar        1 UNL1     0.0305
     14 C         5.714287   2.674797   -5.59287 C.2        1 UNL1     0.0924
     15 N         7.272106   1.179808   -5.195965 N.pl3        1 UNL1     -0.3170
     16 C         6.043229   0.728199   -4.599168 C.3        1 UNL1     0.1275
     17 N         5.130377   1.928522   -4.65957 N.2        1 UNL1     -0.2557
     18 C         5.439255   -0.310875   -5.538977 C.3        1 UNL1     0.0016
     19 C         6.464279   -1.409131   -5.772963 C.3        1 UNL1     0.0026
     20 N         6.814201   -2.003396   -4.490219 N.3        1 UNL1     -0.3018
     21 C         7.346998   -1.068813   -3.496715 C.3        1 UNL1     0.0026
     22 C         6.299365   0.023251   -3.273652 C.3        1 UNL1     0.0016
     23 C         7.548369   -3.245681   -4.625745 C.3        1 UNL1     0.0012
     24 C         6.632127   -4.357121   -5.161431 C.3        1 UNL1     -0.0339
     25 C         6.758664   -4.503868   -6.686722 C.3        1 UNL1     -0.0615
     26 C         6.927549   -5.664784   -4.447623 C.3        1 UNL1     -0.0615
     27 C         5.579442   5.777844   -7.781001 C.ar        1 UNL1     0.1347
     28 C         4.434087   6.434339   -7.367206 C.ar        1 UNL1     0.0342
     29 C         3.793971   5.848564   -6.254424 C.ar        1 UNL1     0.1435
     30 C         4.249176   4.675914   -5.650355 C.ar        1 UNL1     0.0774
     31 O         2.606366   6.307205   -5.802482 O.3        1 UNL1     -0.4436
     32 C         2.069982   5.223713   -5.028395 C.3        1 UNL1     0.3143
     33 C         3.271682   4.396192   -4.619323 C.2        1 UNL1     0.2504
     34 C         3.759385   7.568847   -8.086768 C.3        1 UNL1     -0.0327
     35 O         1.523343   5.786559   -3.829378 O.2        1 UNL1     -0.4528
     36 C         -1.345908   3.512851   -2.826509 C.3        1 UNL1     0.0854
     37 C         -1.332341   1.964319   -2.527532 C.3        1 UNL1     0.0236
     38 C         -1.920283   1.547395   -1.094968 C.3        1 UNL1     0.1131
     39 C         -1.393212   2.269046   0.210285 C.3        1 UNL1     0.0200
     40 C         0.236872   2.556172   0.417218 C.3        1 UNL1     0.0661
     41 C         1.478632   1.416261   0.226828 C.3        1 UNL1     0.0091
     42 C         3.208264   1.625472   -0.347632 C.3        1 UNL1     0.0661
     43 C         7.184327   3.856388   -7.780217 C.2        1 UNL1     0.2131
     44 O         7.605172   4.035738   -8.908694 O.2        1 UNL1     -0.2851
     45 O         6.338622   6.321954   -8.814939 O.3        1 UNL1     -0.5056
     46 O         3.401011   3.68389   -3.648884 O.2        1 UNL1     -0.2836
     47 C         4.918867   3.445891   0.589238 C.3        1 UNL1     -0.0566
     48 O         3.792635   0.831617   0.760258 O.3        1 UNL1     -0.3909
     49 C         0.921902   0.202062   -0.482584 C.3        1 UNL1     -0.0577
     50 O         0.609817   3.781341   -0.180775 O.3        1 UNL1     -0.3910
     51 O         -1.704028   4.345615   -1.74684 O.3        1 UNL1     -0.3753
     52 C         -0.080364   1.262834   -3.148357 C.3        1 UNL1     -0.0564
     53 O         -2.221792   0.082302   -0.972809 O.3        1 UNL1     -0.4608
     54 C         -2.350413   -0.607569   0.204248 C.2        1 UNL1     0.3042
     55 O         -1.594667   -1.469507   0.651182 O.2        1 UNL1     -0.2512
     56 C         -3.535091   -0.182267   1.02423 C.3        1 UNL1     0.0332
     57 C         -2.408126   3.458483   0.546984 C.3        1 UNL1     -0.0567
     58 C         1.194298   4.389278   -5.991942 C.3        1 UNL1     0.0210
     59 C         -2.311305   5.581912   -2.119199 C.3        1 UNL1     0.0372
     60 C         -0.078292   4.05645   -3.385805 C.2        1 UNL1     -0.0208
     61 C         0.600963   5.160843   -3.07328 C.2        1 UNL1     0.0882
     62 H         4.156775   3.250694   -1.402102 H        1 UNL1     0.0365
     63 H         5.817709   3.601242   -2.537286 H        1 UNL1     0.0576
     64 H         8.202565   1.903881   -1.573856 H        1 UNL1     0.0615
     65 H         7.814251   3.850449   -3.985897 H        1 UNL1     0.0622
     66 H         -2.100493   3.634882   -3.616291 H        1 UNL1     0.0645
     67 H         -2.098766   1.553294   -3.207393 H        1 UNL1     0.0362
     68 H         -2.959995   1.88752   -1.216777 H        1 UNL1     0.0741
     69 H         -1.637093   1.657441   1.068696 H        1 UNL1     0.0359
     70 H         0.257796   2.761461   1.504636 H        1 UNL1     0.0600
     71 H         1.558884   1.042411   1.26642 H        1 UNL1     0.0348
     72 H         2.866743   2.625503   -0.043301 H        1 UNL1     0.0602
     73 H         0.20691   3.479101   -4.229947 H        1 UNL1     0.0628
     74 H         0.409034   5.774272   -2.192311 H        1 UNL1     0.1022
     75 H         11.070844   1.426424   -3.50549 H        1 UNL1     0.0279
     76 H         11.009334   1.317238   -5.219432 H        1 UNL1     0.0279
     77 H         11.814216   2.702354   -4.37746 H        1 UNL1     0.0279
     78 H         9.229942   1.608327   -6.535693 H        1 UNL1     0.1553
     79 H         8.085213   0.596917   -5.273603 H        1 UNL1     0.1484
     80 H         4.521406   -0.708802   -5.089562 H        1 UNL1     0.0317
     81 H         5.149611   0.144843   -6.491909 H        1 UNL1     0.0317
     82 H         7.357635   -1.028834   -6.289878 H        1 UNL1     0.0428
     83 H         6.013754   -2.138337   -6.447007 H        1 UNL1     0.0428
     84 H         7.526534   -1.524385   -2.517924 H        1 UNL1     0.0428
     85 H         8.329295   -0.674661   -3.791763 H        1 UNL1     0.0428
     86 H         6.663139   0.609633   -2.450358 H        1 UNL1     0.0317
     87 H         5.375107   -0.418596   -2.881715 H        1 UNL1     0.0317
     88 H         8.36112   -3.08523   -5.346153 H        1 UNL1     0.0429
     89 H         8.013723   -3.539499   -3.676066 H        1 UNL1     0.0429
     90 H         5.591135   -4.112275   -4.91936 H        1 UNL1     0.0308
     91 H         7.791309   -4.712734   -6.981884 H        1 UNL1     0.0233
     92 H         6.112059   -5.30485   -7.052699 H        1 UNL1     0.0233
     93 H         6.452696   -3.595922   -7.220438 H        1 UNL1     0.0233
     94 H         6.418363   -6.4935   -4.951405 H        1 UNL1     0.0233
     95 H         8.002084   -5.867078   -4.467926 H        1 UNL1     0.0233
     96 H         6.59347   -5.635536   -3.406708 H        1 UNL1     0.0233
     97 H         2.85333   7.890222   -7.58178 H        1 UNL1     0.0280
     98 H         4.399933   8.458222   -8.149743 H        1 UNL1     0.0280
     99 H         3.491774   7.251127   -9.107813 H        1 UNL1     0.0280
     100 H         5.856923   6.496763   -9.604262 H        1 UNL1     0.2922
     101 H         4.032695   3.328095   1.212518 H        1 UNL1     0.0236
     102 H         5.158708   4.493973   0.413216 H        1 UNL1     0.0236
     103 H         5.749112   3.067855   1.208895 H        1 UNL1     0.0236
     104 H         4.054019   1.456315   1.464816 H        1 UNL1     0.2098
     105 H         0.717925   0.35372   -1.539563 H        1 UNL1     0.0234
     106 H         1.494775   -0.713496   -0.335965 H        1 UNL1     0.0234
     107 H         0.0   -0.0   0.0 H        1 UNL1     0.0234
     108 H         0.469557   3.689127   -1.142851 H        1 UNL1     0.2098
     109 H         0.862013   1.675666   -2.762085 H        1 UNL1     0.0234
     110 H         -0.085963   0.175643   -3.015215 H        1 UNL1     0.0234
     111 H         -0.039536   1.397439   -4.237467 H        1 UNL1     0.0234
     112 H         -3.574701   -0.76368   1.950371 H        1 UNL1     0.0342
     113 H         -3.525717   0.886294   1.233833 H        1 UNL1     0.0342
     114 H         -4.44601   -0.400887   0.450126 H        1 UNL1     0.0342
     115 H         -3.430513   3.089711   0.70798 H        1 UNL1     0.0234
     116 H         -2.12883   4.045445   1.424206 H        1 UNL1     0.0234
     117 H         -2.56313   4.155882   -0.294176 H        1 UNL1     0.0234
     118 H         0.18247   4.815813   -6.107174 H        1 UNL1     0.0309
     119 H         1.644675   4.263228   -6.981626 H        1 UNL1     0.0309
     120 H         1.001041   3.378699   -5.615793 H        1 UNL1     0.0309
     121 H         -1.584101   6.143064   -2.705407 H        1 UNL1     0.0524
     122 H         -3.204387   5.436246   -2.749455 H        1 UNL1     0.0524
     123 H         -2.592796   6.144215   -1.233381 H        1 UNL1     0.0524
@<TRIPOS>BOND
     1     1     2    1
     2     1    42    1
     3     2     3    2
     4     3     4    1
     5     4     5    2
     6     5     7    1
     7     6    75    1
     8     6    76    1
     9     6    77    1
    10     7     9   am
    11     9    10    1
    12    10    11    2
    13    10    43    1
    14    11    14    1
    15    11    15    1
    16    12    13   ar
    17    12    27   ar
    18    12    43    1
    19    13    14    1
    20    13    30   ar
    21    14    17    2
    22    15    16    1
    23    16    17    1
    24    16    18    1
    25    16    22    1
    26    18    19    1
    27    19    20    1
    28    20    21    1
    29    21    22    1
    30    23    24    1
    31    23    88    1
    32    23    89    1
    33    24    25    1
    34    24    26    1
    35    24    90    1
    36    25    91    1
    37    25    92    1
    38    25    93    1
    39    26    94    1
    40    26    95    1
    41    26    96    1
    42    27    28   ar
    43    28    29   ar
    44    29    30   ar
    45    29    31    1
    46    30    33    1
    47    31    32    1
    48    32    33    1
    49    32    35    1
    50    34    97    1
    51    34    98    1
    52    34    99    1
    53    35    61    1
    54    36    37    1
    55    36    60    1
    56    37    38    1
    57    38    39    1
    58    39    40    1
    59    40    41    1
    60    41    42    1
    61    45   100    1
    62    47   101    1
    63    47   102    1
    64    47   103    1
    65    48   104    1
    66    49   105    1
    67    49   106    1
    68    49   107    1
    69    50   108    1
    70    51    59    1
    71    52   109    1
    72    52   110    1
    73    52   111    1
    74    53    54    1
    75    54    55    2
    76    54    56    1
    77    56   112    1
    78    56   113    1
    79    56   114    1
    80    57   115    1
    81    57   116    1
    82    57   117    1
    83    58   118    1
    84    58   119    1
    85    58   120    1
    86    59   121    1
    87    59   122    1
    88    59   123    1
    89    60    61    2
    90     1    47    1
    91     1    62    1
    92     2    63    1
    93     3    64    1
    94     4    65    1
    95     5     6    1
    96     7     8    2
    97     9    78    1
    98    15    79    1
    99    18    80    1
   100    18    81    1
   101    19    82    1
   102    19    83    1
   103    20    23    1
   104    21    84    1
   105    21    85    1
   106    22    86    1
   107    22    87    1
   108    27    45    1
   109    28    34    1
   110    32    58    1
   111    33    46    2
   112    36    51    1
   113    36    66    1
   114    37    52    1
   115    37    67    1
   116    38    53    1
   117    38    68    1
   118    42    48    1
   119    42    72    1
   120    43    44    2
   121    60    73    1
   122    61    74    1
   123    39    69    1
   124    39    57    1
   125    40    70    1
   126    40    50    1
   127    41    71    1
   128    41    49    1
