@<TRIPOS>MOLECULE
*****
 123 128 0 0 0
SMALL
GASTEIGER

@<TRIPOS>ATOM
     1 C         4.830548   2.526694   0.519453 C.3        1 UNL1     0.0009
     2 C         6.114848   3.558021   -0.331413 C.2        1 UNL1     -0.0787
     3 C         7.405911   3.676602   -0.975727 C.2        1 UNL1     -0.0649
     4 C         8.061273   5.031302   -1.751386 C.2        1 UNL1     -0.0542
     5 C         9.029735   5.480554   -2.682693 C.2        1 UNL1     0.0115
     6 C         10.268211   5.048223   -3.514913 C.3        1 UNL1     -0.0348
     7 C         8.868439   6.941892   -3.327257 C.2        1 UNL1     0.2441
     8 O         9.523904   7.907256   -2.959882 O.2        1 UNL1     -0.2702
     9 N         8.115612   6.982461   -4.513747 N.am        1 UNL1     -0.2772
     10 C         6.778562   7.139064   -4.228979 C.2        1 UNL1     0.1049
     11 C         6.115751   6.038381   -3.923361 C.2        1 UNL1     0.0801
     12 C         5.185986   8.518548   -2.880624 C.ar        1 UNL1     0.0753
     13 C         4.633648   7.283287   -2.414083 C.ar        1 UNL1     0.0305
     14 C         4.99559   6.005066   -3.022526 C.2        1 UNL1     0.0924
     15 N         6.478233   4.749842   -4.045026 N.pl3        1 UNL1     -0.3170
     16 C         5.331006   3.939334   -3.733256 C.3        1 UNL1     0.1275
     17 N         4.514785   4.78728   -2.788537 N.2        1 UNL1     -0.2557
     18 C         4.505592   3.813771   -5.010216 C.3        1 UNL1     0.0016
     19 C         5.392434   3.250268   -6.109108 C.3        1 UNL1     0.0026
     20 N         5.898485   1.952939   -5.682635 N.3        1 UNL1     -0.3018
     21 C         6.654555   1.962165   -4.428585 C.3        1 UNL1     0.0026
     22 C         5.743231   2.527509   -3.33782 C.3        1 UNL1     0.0016
     23 C         6.504049   1.200778   -6.763463 C.3        1 UNL1     0.0012
     24 C         5.431126   0.723977   -7.755055 C.3        1 UNL1     -0.0339
     25 C         5.563847   1.434729   -9.11199 C.3        1 UNL1     -0.0615
     26 C         5.495848   -0.785908   -7.906186 C.3        1 UNL1     -0.0615
     27 C         4.746601   9.741079   -2.378152 C.ar        1 UNL1     0.1347
     28 C         3.736653   9.856154   -1.439635 C.ar        1 UNL1     0.0342
     29 C         3.241794   8.625133   -0.95915 C.ar        1 UNL1     0.1435
     30 C         3.697644   7.391982   -1.426867 C.ar        1 UNL1     0.0774
     31 O         2.181321   8.569535   -0.124097 O.3        1 UNL1     -0.4436
     32 C         1.695804   7.223849   -0.243579 C.3        1 UNL1     0.3143
     33 C         2.881014   6.417192   -0.734287 C.2        1 UNL1     0.2504
     34 C         3.043272   11.129478   -1.042184 C.3        1 UNL1     -0.0327
     35 O         1.394594   6.760708   1.07855 O.2        1 UNL1     -0.4528
     36 C         -1.440239   4.267013   0.687018 C.3        1 UNL1     0.0854
     37 C         -1.496909   2.951101   -0.180557 C.3        1 UNL1     0.0236
     38 C         -1.875891   1.621572   0.632137 C.3        1 UNL1     0.1131
     39 C         -1.091375   1.261138   1.957614 C.3        1 UNL1     0.0200
     40 C         0.567839   1.418267   2.026592 C.3        1 UNL1     0.0661
     41 C         1.671788   0.807311   0.892733 C.3        1 UNL1     0.0091
     42 C         3.296805   1.458066   0.343877 C.3        1 UNL1     0.0661
     43 C         6.179001   8.458833   -3.981812 C.2        1 UNL1     0.2131
     44 O         6.424533   9.396932   -4.718305 O.2        1 UNL1     -0.2851
     45 O         5.368159   10.894396   -2.852454 O.3        1 UNL1     -0.5056
     46 O         3.110567   5.239682   -0.571103 O.2        1 UNL1     -0.2836
     47 C         5.270261   2.209941   1.974204 C.3        1 UNL1     -0.0566
     48 O         3.990046   0.153208   0.469885 O.3        1 UNL1     -0.3909
     49 C         0.916688   0.398851   -0.352449 C.3        1 UNL1     -0.0577
     50 O         0.931809   2.733315   2.395237 O.3        1 UNL1     -0.3910
     51 O         -1.554616   4.091199   2.081091 O.3        1 UNL1     -0.3753
     52 C         -0.418926   2.954082   -1.313206 C.3        1 UNL1     -0.0564
     53 O         -2.264749   0.469946   -0.248131 O.3        1 UNL1     -0.4608
     54 C         -1.954102   -0.845187   -0.020415 C.2        1 UNL1     0.3042
     55 O         -1.078907   -1.512038   -0.571036 O.2        1 UNL1     -0.2512
     56 C         -2.769302   -1.475089   1.072921 C.3        1 UNL1     0.0332
     57 C         -1.944716   1.819065   3.18997 C.3        1 UNL1     -0.0567
     58 C         0.61485   7.245398   -1.349294 C.3        1 UNL1     0.0210
     59 C         -2.796246   4.518597   2.639258 C.3        1 UNL1     0.0372
     60 C         -0.241813   5.119567   0.458794 C.2        1 UNL1     -0.0208
     61 C         0.561358   5.732681   1.329283 C.2        1 UNL1     0.0882
     62 H         4.183924   3.410817   0.573459 H        1 UNL1     0.0365
     63 H         5.661589   4.548814   -0.258225 H        1 UNL1     0.0576
     64 H         8.033996   2.803044   -1.164178 H        1 UNL1     0.0615
     65 H         7.411105   5.851951   -1.436268 H        1 UNL1     0.0622
     66 H         -2.300909   4.85959   0.346215 H        1 UNL1     0.0645
     67 H         -2.3922   3.084858   -0.812319 H        1 UNL1     0.0362
     68 H         -2.892563   1.888917   0.95837 H        1 UNL1     0.0741
     69 H         -1.239427   0.211792   2.175244 H        1 UNL1     0.0359
     70 H         0.779723   0.810009   2.926696 H        1 UNL1     0.0600
     71 H         1.890079   -0.178856   1.347466 H        1 UNL1     0.0348
     72 H         3.086324   1.942352   1.308491 H        1 UNL1     0.0602
     73 H         -0.141631   5.310136   -0.580868 H        1 UNL1     0.0628
     74 H         0.561653   5.547791   2.404017 H        1 UNL1     0.1022
     75 H         10.994739   4.490714   -2.875871 H        1 UNL1     0.0279
     76 H         10.086353   4.348739   -4.327759 H        1 UNL1     0.0279
     77 H         10.878965   5.90193   -3.843341 H        1 UNL1     0.0279
     78 H         8.220948   6.103352   -5.015892 H        1 UNL1     0.1553
     79 H         7.22119   4.434152   -4.641086 H        1 UNL1     0.1484
     80 H         3.644687   3.162449   -4.816853 H        1 UNL1     0.0317
     81 H         4.101528   4.785999   -5.312138 H        1 UNL1     0.0317
     82 H         6.216991   3.93449   -6.35782 H        1 UNL1     0.0428
     83 H         4.784593   3.170675   -7.010908 H        1 UNL1     0.0428
     84 H         6.95447   0.965601   -4.089878 H        1 UNL1     0.0428
     85 H         7.603512   2.507175   -4.52739 H        1 UNL1     0.0428
     86 H         6.278909   2.395934   -2.416015 H        1 UNL1     0.0317
     87 H         4.863383   1.88435   -3.214087 H        1 UNL1     0.0317
     88 H         7.199638   1.864432   -7.29357 H        1 UNL1     0.0429
     89 H         7.092839   0.357025   -6.381126 H        1 UNL1     0.0429
     90 H         4.438773   0.94144   -7.342551 H        1 UNL1     0.0308
     91 H         6.603776   1.452577   -9.451594 H        1 UNL1     0.0233
     92 H         4.94808   0.941953   -9.86804 H        1 UNL1     0.0233
     93 H         5.224123   2.47678   -9.072612 H        1 UNL1     0.0233
     94 H         5.037008   -1.090741   -8.852959 H        1 UNL1     0.0233
     95 H         6.538348   -1.116176   -7.915058 H        1 UNL1     0.0233
     96 H         4.972341   -1.291458   -7.089898 H        1 UNL1     0.0233
     97 H         1.972636   11.08226   -1.217513 H        1 UNL1     0.0280
     98 H         3.163348   11.349857   0.026587 H        1 UNL1     0.0280
     99 H         3.452312   11.970199   -1.62611 H        1 UNL1     0.0280
     100 H         4.776916   11.570561   -3.133264 H        1 UNL1     0.2922
     101 H         4.705054   2.827565   2.67187 H        1 UNL1     0.0236
     102 H         6.34529   2.30022   2.126346 H        1 UNL1     0.0236
     103 H         5.03182   1.172477   2.262315 H        1 UNL1     0.0236
     104 H         3.639831   -0.291115   1.266689 H        1 UNL1     0.2098
     105 H         0.685092   1.219542   -1.02672 H        1 UNL1     0.0234
     106 H         1.361977   -0.429052   -0.90401 H        1 UNL1     0.0234
     107 H         0.0   -0.0   0.0 H        1 UNL1     0.0234
     108 H         0.533193   2.910494   3.269011 H        1 UNL1     0.2098
     109 H         -0.553894   3.790013   -2.013717 H        1 UNL1     0.0234
     110 H         0.607387   2.958723   -0.93058 H        1 UNL1     0.0234
     111 H         -0.471174   2.042995   -1.924055 H        1 UNL1     0.0234
     112 H         -2.458279   -2.514177   1.217516 H        1 UNL1     0.0342
     113 H         -2.706711   -0.91523   2.004846 H        1 UNL1     0.0342
     114 H         -3.821669   -1.47937   0.757214 H        1 UNL1     0.0342
     115 H         -1.846018   1.17952   4.077906 H        1 UNL1     0.0234
     116 H         -1.682404   2.836357   3.487222 H        1 UNL1     0.0234
     117 H         -3.034893   1.783737   3.022022 H        1 UNL1     0.0234
     118 H         -0.398611   7.085369   -0.941504 H        1 UNL1     0.0309
     119 H         0.622054   8.167411   -1.939246 H        1 UNL1     0.0309
     120 H         0.730841   6.425541   -2.066571 H        1 UNL1     0.0309
     121 H         -2.618337   4.771544   3.684114 H        1 UNL1     0.0524
     122 H         -3.190203   5.420469   2.141803 H        1 UNL1     0.0524
     123 H         -3.53425   3.724805   2.566183 H        1 UNL1     0.0524
@<TRIPOS>BOND
     1     1     2    1
     2     1    42    1
     3     2     3    2
     4     3     4    1
     5     4     5    2
     6     5     7    1
     7     6    75    1
     8     6    76    1
     9     6    77    1
    10     7     9   am
    11     9    10    1
    12    10    11    2
    13    10    43    1
    14    11    14    1
    15    11    15    1
    16    12    13   ar
    17    12    27   ar
    18    12    43    1
    19    13    14    1
    20    13    30   ar
    21    14    17    2
    22    15    16    1
    23    16    17    1
    24    16    18    1
    25    16    22    1
    26    18    19    1
    27    19    20    1
    28    20    21    1
    29    21    22    1
    30    23    24    1
    31    23    88    1
    32    23    89    1
    33    24    25    1
    34    24    26    1
    35    24    90    1
    36    25    91    1
    37    25    92    1
    38    25    93    1
    39    26    94    1
    40    26    95    1
    41    26    96    1
    42    27    28   ar
    43    28    29   ar
    44    29    30   ar
    45    29    31    1
    46    30    33    1
    47    31    32    1
    48    32    33    1
    49    32    35    1
    50    34    97    1
    51    34    98    1
    52    34    99    1
    53    35    61    1
    54    36    37    1
    55    36    60    1
    56    37    38    1
    57    38    39    1
    58    39    40    1
    59    40    41    1
    60    41    42    1
    61    45   100    1
    62    47   101    1
    63    47   102    1
    64    47   103    1
    65    48   104    1
    66    49   105    1
    67    49   106    1
    68    49   107    1
    69    50   108    1
    70    51    59    1
    71    52   109    1
    72    52   110    1
    73    52   111    1
    74    53    54    1
    75    54    55    2
    76    54    56    1
    77    56   112    1
    78    56   113    1
    79    56   114    1
    80    57   115    1
    81    57   116    1
    82    57   117    1
    83    58   118    1
    84    58   119    1
    85    58   120    1
    86    59   121    1
    87    59   122    1
    88    59   123    1
    89    60    61    2
    90     1    47    1
    91     1    62    1
    92     2    63    1
    93     3    64    1
    94     4    65    1
    95     5     6    1
    96     7     8    2
    97     9    78    1
    98    15    79    1
    99    18    80    1
   100    18    81    1
   101    19    82    1
   102    19    83    1
   103    20    23    1
   104    21    84    1
   105    21    85    1
   106    22    86    1
   107    22    87    1
   108    27    45    1
   109    28    34    1
   110    32    58    1
   111    33    46    2
   112    36    51    1
   113    36    66    1
   114    37    52    1
   115    37    67    1
   116    38    53    1
   117    38    68    1
   118    42    48    1
   119    42    72    1
   120    43    44    2
   121    60    73    1
   122    61    74    1
   123    39    69    1
   124    39    57    1
   125    40    70    1
   126    40    50    1
   127    41    71    1
   128    41    49    1
