@<TRIPOS>MOLECULE
*****
 123 128 0 0 0
SMALL
GASTEIGER

@<TRIPOS>ATOM
     1 C         -3.272822   -0.456472   -3.587897 C.3        1 UNL1     0.0009
     2 C         -4.931272   -1.221888   -3.905258 C.2        1 UNL1     -0.0787
     3 C         -5.74014   -2.379762   -4.223228 C.2        1 UNL1     -0.0649
     4 C         -7.42905   -2.488208   -4.269936 C.2        1 UNL1     -0.0542
     5 C         -8.537492   -3.3695   -4.227993 C.2        1 UNL1     0.0115
     6 C         -8.956289   -4.86485   -4.27113 C.3        1 UNL1     -0.0348
     7 C         -9.990531   -2.774848   -3.893247 C.2        1 UNL1     0.2441
     8 O         -10.839847   -2.571577   -4.749908 O.2        1 UNL1     -0.2702
     9 N         -10.315375   -2.748412   -2.525794 N.am        1 UNL1     -0.2772
     10 C         -9.882588   -1.575042   -1.952015 C.2        1 UNL1     0.1049
     11 C         -8.614577   -1.539961   -1.584402 C.2        1 UNL1     0.0801
     12 C         -9.90284   0.907673   -2.257053 C.ar        1 UNL1     0.0753
     13 C         -8.486222   0.865126   -2.057075 C.ar        1 UNL1     0.0305
     14 C         -7.816269   -0.344101   -1.583805 C.2        1 UNL1     0.0924
     15 N         -7.716447   -2.534856   -1.484034 N.pl3        1 UNL1     -0.3170
     16 C         -6.529434   -1.99552   -0.875453 C.3        1 UNL1     0.1275
     17 N         -6.542408   -0.534087   -1.251975 N.2        1 UNL1     -0.2557
     18 C         -6.733483   -2.045323   0.6357 C.3        1 UNL1     0.0016
     19 C         -7.049441   -3.477399   1.036845 C.3        1 UNL1     0.0026
     20 N         -5.943165   -4.332318   0.629053 N.3        1 UNL1     -0.3018
     21 C         -5.630252   -4.304291   -0.801216 C.3        1 UNL1     0.0026
     22 C         -5.31154   -2.857305   -1.18141 C.3        1 UNL1     0.0016
     23 C         -6.002809   -5.653258   1.222521 C.3        1 UNL1     0.0012
     24 C         -5.162023   -5.704713   2.507895 C.3        1 UNL1     -0.0339
     25 C         -5.229686   -7.091219   3.169015 C.3        1 UNL1     -0.0615
     26 C         -3.729681   -5.296785   2.209951 C.3        1 UNL1     -0.0615
     27 C         -10.549198   2.095347   -2.591372 C.ar        1 UNL1     0.1347
     28 C         -9.892999   3.307148   -2.71381 C.ar        1 UNL1     0.0342
     29 C         -8.492282   3.231785   -2.560592 C.ar        1 UNL1     0.1435
     30 C         -7.826754   2.042386   -2.261222 C.ar        1 UNL1     0.0774
     31 O         -7.724547   4.343202   -2.54207 O.3        1 UNL1     -0.4436
     32 C         -6.502457   3.929338   -1.912716 C.3        1 UNL1     0.3143
     33 C         -6.438682   2.429505   -2.119228 C.2        1 UNL1     0.2504
     34 C         -10.546472   4.656849   -2.820488 C.3        1 UNL1     -0.0327
     35 O         -5.422783   4.499963   -2.662345 O.2        1 UNL1     -0.4528
     36 C         -2.606285   5.048462   -0.177475 C.3        1 UNL1     0.0854
     37 C         -1.886016   4.003374   0.758755 C.3        1 UNL1     0.0236
     38 C         -0.291089   3.942972   0.602858 C.3        1 UNL1     0.1131
     39 C         0.352032   3.788028   -0.834034 C.3        1 UNL1     0.0200
     40 C         -0.286421   2.708179   -1.933463 C.3        1 UNL1     0.0661
     41 C         -0.649261   1.079066   -1.630238 C.3        1 UNL1     0.0091
     42 C         -1.965773   0.004529   -2.321303 C.3        1 UNL1     0.0661
     43 C         -10.67299   -0.336342   -2.008953 C.2        1 UNL1     0.2131
     44 O         -11.864869   -0.351736   -1.760105 O.2        1 UNL1     -0.2851
     45 O         -11.92371   2.041394   -2.813286 O.3        1 UNL1     -0.5056
     46 O         -5.461029   1.717598   -2.176118 O.2        1 UNL1     -0.2836
     47 C         -2.495621   -0.281834   -4.920354 C.3        1 UNL1     -0.0566
     48 O         -1.049709   -1.12494   -2.611547 O.3        1 UNL1     -0.3909
     49 C         -0.626709   0.843958   -0.136347 C.3        1 UNL1     -0.0577
     50 O         -1.331067   3.306045   -2.674404 O.3        1 UNL1     -0.3910
     51 O         -1.793603   5.668615   -1.148242 O.3        1 UNL1     -0.3753
     52 C         -2.750077   2.717034   0.967745 C.3        1 UNL1     -0.0564
     53 O         0.394838   3.217739   1.723512 O.3        1 UNL1     -0.4608
     54 C         1.717212   3.343502   2.060324 C.2        1 UNL1     0.3042
     55 O         2.251169   3.024329   3.121858 O.2        1 UNL1     -0.2512
     56 C         2.571536   3.88635   0.950296 C.3        1 UNL1     0.0332
     57 C         0.721999   5.253423   -1.357404 C.3        1 UNL1     -0.0567
     58 C         -6.66843   4.21838   -0.402605 C.3        1 UNL1     0.0210
     59 C         -2.233777   6.961494   -1.561253 C.3        1 UNL1     0.0372
     60 C         -3.807152   4.532231   -0.889223 C.2        1 UNL1     -0.0208
     61 C         -4.184568   4.671137   -2.160839 C.2        1 UNL1     0.0882
     62 H         -3.77311   0.499145   -3.38986 H        1 UNL1     0.0365
     63 H         -5.574362   -0.340511   -3.859641 H        1 UNL1     0.0576
     64 H         -5.303311   -3.377279   -4.308358 H        1 UNL1     0.0615
     65 H         -7.757546   -1.445395   -4.259263 H        1 UNL1     0.0622
     66 H         -2.973008   5.825885   0.507488 H        1 UNL1     0.0645
     67 H         -1.991564   4.432319   1.7704 H        1 UNL1     0.0362
     68 H         -0.03569   4.962933   0.928391 H        1 UNL1     0.0741
     69 H         1.370428   3.439985   -0.723834 H        1 UNL1     0.0359
     70 H         0.556622   2.642272   -2.647602 H        1 UNL1     0.0600
     71 H         0.304672   0.607961   -1.938508 H        1 UNL1     0.0348
     72 H         -1.864334   0.847466   -3.020219 H        1 UNL1     0.0602
     73 H         -4.46747   4.09036   -0.184965 H        1 UNL1     0.0628
     74 H         -3.545775   5.059567   -2.954755 H        1 UNL1     0.1022
     75 H         -9.630974   -5.107845   -3.4151 H        1 UNL1     0.0279
     76 H         -9.545047   -5.179178   -5.129984 H        1 UNL1     0.0279
     77 H         -8.114589   -5.547768   -4.084409 H        1 UNL1     0.0279
     78 H         -9.845743   -3.514598   -2.047797 H        1 UNL1     0.1553
     79 H         -7.964576   -3.505387   -1.425423 H        1 UNL1     0.1484
     80 H         -5.825235   -1.681667   1.131287 H        1 UNL1     0.0317
     81 H         -7.546488   -1.378782   0.942942 H        1 UNL1     0.0317
     82 H         -7.998213   -3.822598   0.600287 H        1 UNL1     0.0428
     83 H         -7.192992   -3.48985   2.117719 H        1 UNL1     0.0428
     84 H         -4.746581   -4.892082   -1.068494 H        1 UNL1     0.0428
     85 H         -6.436064   -4.744562   -1.40466 H        1 UNL1     0.0428
     86 H         -4.960027   -2.895168   -2.195803 H        1 UNL1     0.0317
     87 H         -4.435359   -2.507209   -0.622093 H        1 UNL1     0.0317
     88 H         -7.048757   -5.864921   1.480368 H        1 UNL1     0.0429
     89 H         -5.68465   -6.42524   0.510065 H        1 UNL1     0.0429
     90 H         -5.544008   -4.960741   3.216984 H        1 UNL1     0.0308
     91 H         -4.816177   -7.864471   2.51465 H        1 UNL1     0.0233
     92 H         -4.685496   -7.094436   4.116356 H        1 UNL1     0.0233
     93 H         -6.257659   -7.391242   3.405855 H        1 UNL1     0.0233
     94 H         -3.552033   -4.269287   2.5454 H        1 UNL1     0.0233
     95 H         -3.035828   -5.950919   2.745337 H        1 UNL1     0.0233
     96 H         -3.51317   -5.353134   1.139477 H        1 UNL1     0.0233
     97 H         -9.821015   5.464328   -2.790132 H        1 UNL1     0.0280
     98 H         -11.092506   4.778768   -3.765072 H        1 UNL1     0.0280
     99 H         -11.250528   4.793198   -1.983345 H        1 UNL1     0.0280
     100 H         -12.231416   1.225554   -3.167327 H        1 UNL1     0.2922
     101 H         -3.130554   -0.572247   -5.75712 H        1 UNL1     0.0236
     102 H         -1.54015   -0.805232   -4.931048 H        1 UNL1     0.0236
     103 H         -2.240356   0.773095   -5.115693 H        1 UNL1     0.0236
     104 H         -0.832936   -1.091668   -3.563846 H        1 UNL1     0.2098
     105 H         -0.209471   1.664994   0.441253 H        1 UNL1     0.0234
     106 H         -1.579087   0.528254   0.289369 H        1 UNL1     0.0234
     107 H         0.0   0.0   0.0 H        1 UNL1     0.0234
     108 H         -1.360102   2.863073   -3.54429 H        1 UNL1     0.2098
     109 H         -3.314743   2.444071   0.065329 H        1 UNL1     0.0234
     110 H         -2.164814   1.856038   1.308181 H        1 UNL1     0.0234
     111 H         -3.500697   2.857487   1.756915 H        1 UNL1     0.0234
     112 H         3.411111   4.44993   1.36843 H        1 UNL1     0.0342
     113 H         2.922131   3.10132   0.281974 H        1 UNL1     0.0342
     114 H         1.961833   4.581264   0.356561 H        1 UNL1     0.0342
     115 H         0.355193   6.034637   -0.677442 H        1 UNL1     0.0234
     116 H         1.79213   5.417251   -1.498924 H        1 UNL1     0.0234
     117 H         0.208475   5.528451   -2.294737 H        1 UNL1     0.0234
     118 H         -6.087249   5.101078   -0.083105 H        1 UNL1     0.0309
     119 H         -7.712923   4.349501   -0.102532 H        1 UNL1     0.0309
     120 H         -6.27121   3.413568   0.225567 H        1 UNL1     0.0309
     121 H         -2.721405   6.850077   -2.529324 H        1 UNL1     0.0524
     122 H         -2.971936   7.394133   -0.865565 H        1 UNL1     0.0524
     123 H         -1.387847   7.638075   -1.643316 H        1 UNL1     0.0524
@<TRIPOS>BOND
     1     1     2    1
     2     1    42    1
     3     2     3    2
     4     3     4    1
     5     4     5    2
     6     5     7    1
     7     6    75    1
     8     6    76    1
     9     6    77    1
    10     7     9   am
    11     9    10    1
    12    10    11    2
    13    10    43    1
    14    11    14    1
    15    11    15    1
    16    12    13   ar
    17    12    27   ar
    18    12    43    1
    19    13    14    1
    20    13    30   ar
    21    14    17    2
    22    15    16    1
    23    16    17    1
    24    16    18    1
    25    16    22    1
    26    18    19    1
    27    19    20    1
    28    20    21    1
    29    21    22    1
    30    23    24    1
    31    23    88    1
    32    23    89    1
    33    24    25    1
    34    24    26    1
    35    24    90    1
    36    25    91    1
    37    25    92    1
    38    25    93    1
    39    26    94    1
    40    26    95    1
    41    26    96    1
    42    27    28   ar
    43    28    29   ar
    44    29    30   ar
    45    29    31    1
    46    30    33    1
    47    31    32    1
    48    32    33    1
    49    32    35    1
    50    34    97    1
    51    34    98    1
    52    34    99    1
    53    35    61    1
    54    36    37    1
    55    36    60    1
    56    37    38    1
    57    38    39    1
    58    39    40    1
    59    40    41    1
    60    41    42    1
    61    45   100    1
    62    47   101    1
    63    47   102    1
    64    47   103    1
    65    48   104    1
    66    49   105    1
    67    49   106    1
    68    49   107    1
    69    50   108    1
    70    51    59    1
    71    52   109    1
    72    52   110    1
    73    52   111    1
    74    53    54    1
    75    54    55    2
    76    54    56    1
    77    56   112    1
    78    56   113    1
    79    56   114    1
    80    57   115    1
    81    57   116    1
    82    57   117    1
    83    58   118    1
    84    58   119    1
    85    58   120    1
    86    59   121    1
    87    59   122    1
    88    59   123    1
    89    60    61    2
    90     1    47    1
    91     1    62    1
    92     2    63    1
    93     3    64    1
    94     4    65    1
    95     5     6    1
    96     7     8    2
    97     9    78    1
    98    15    79    1
    99    18    80    1
   100    18    81    1
   101    19    82    1
   102    19    83    1
   103    20    23    1
   104    21    84    1
   105    21    85    1
   106    22    86    1
   107    22    87    1
   108    27    45    1
   109    28    34    1
   110    32    58    1
   111    33    46    2
   112    36    51    1
   113    36    66    1
   114    37    52    1
   115    37    67    1
   116    38    53    1
   117    38    68    1
   118    42    48    1
   119    42    72    1
   120    43    44    2
   121    60    73    1
   122    61    74    1
   123    39    69    1
   124    39    57    1
   125    40    70    1
   126    40    50    1
   127    41    71    1
   128    41    49    1
