@<TRIPOS>MOLECULE
*****
 123 128 0 0 0
SMALL
GASTEIGER

@<TRIPOS>ATOM
     1 C         0.302706   -1.658777   -3.765389 C.3        1 UNL1     0.0009
     2 C         1.752954   -2.552244   -4.49719 C.2        1 UNL1     -0.0787
     3 C         2.952048   -2.547705   -5.308484 C.2        1 UNL1     -0.0649
     4 C         4.056913   -3.809555   -5.539492 C.2        1 UNL1     -0.0542
     5 C         5.375395   -4.13972   -5.939084 C.2        1 UNL1     0.0115
     6 C         6.667009   -3.579261   -6.595547 C.3        1 UNL1     -0.0348
     7 C         5.977016   -5.569748   -5.526701 C.2        1 UNL1     0.2441
     8 O         6.056322   -6.508427   -6.307162 O.2        1 UNL1     -0.2702
     9 N         6.644869   -5.593294   -4.289943 N.am        1 UNL1     -0.2772
     10 C         5.758501   -5.854688   -3.27046 C.2        1 UNL1     0.1049
     11 C         5.079465   -4.81978   -2.809918 C.2        1 UNL1     0.0801
     12 C         3.923329   -7.411514   -2.587985 C.ar        1 UNL1     0.0753
     13 C         3.147201   -6.244273   -2.298537 C.ar        1 UNL1     0.0305
     14 C         3.747663   -4.912362   -2.275964 C.2        1 UNL1     0.0924
     15 N         5.256178   -3.505098   -3.026507 N.pl3        1 UNL1     -0.3170
     16 C         4.359503   -2.791945   -2.156081 C.3        1 UNL1     0.1275
     17 N         3.209995   -3.744594   -1.935145 N.2        1 UNL1     -0.2557
     18 C         5.056994   -2.649724   -0.806644 C.3        1 UNL1     0.0016
     19 C         6.398287   -1.966986   -1.022034 C.3        1 UNL1     0.0026
     20 N         6.167743   -0.664977   -1.632484 N.3        1 UNL1     -0.3018
     21 C         5.446826   -0.694641   -2.906755 C.3        1 UNL1     0.0026
     22 C         4.100817   -1.380387   -2.666116 C.3        1 UNL1     0.0016
     23 C         7.340762   0.18589   -1.606105 C.3        1 UNL1     0.0012
     24 C         7.017527   1.567296   -2.196862 C.3        1 UNL1     -0.0339
     25 C         5.617333   2.04456   -1.777657 C.3        1 UNL1     -0.0615
     26 C         8.09048   2.566858   -1.801352 C.3        1 UNL1     -0.0615
     27 C         3.372675   -8.687124   -2.489406 C.ar        1 UNL1     0.1347
     28 C         2.074007   -8.9223   -2.07443 C.ar        1 UNL1     0.0342
     29 C         1.314119   -7.756234   -1.841999 C.ar        1 UNL1     0.1435
     30 C         1.841713   -6.470912   -1.971656 C.ar        1 UNL1     0.0774
     31 O         0.066766   -7.81891   -1.327035 O.3        1 UNL1     -0.4436
     32 C         -0.176413   -6.504048   -0.804662 C.3        1 UNL1     0.3143
     33 C         0.761642   -5.59358   -1.571027 C.2        1 UNL1     0.2504
     34 C         1.495023   -10.259526   -1.704696 C.3        1 UNL1     -0.0327
     35 O         -1.510575   -6.137607   -1.177469 O.2        1 UNL1     -0.4528
     36 C         -2.756475   -3.820618   1.55884 C.3        1 UNL1     0.0854
     37 C         -2.137862   -2.464449   2.074249 C.3        1 UNL1     0.0236
     38 C         -3.138152   -1.211314   2.045682 C.3        1 UNL1     0.1131
     39 C         -3.937629   -0.874878   0.722837 C.3        1 UNL1     0.0200
     40 C         -3.17602   -0.924517   -0.760378 C.3        1 UNL1     0.0661
     41 C         -1.702408   -0.178033   -1.146172 C.3        1 UNL1     0.0091
     42 C         -0.379869   -0.686728   -2.3113 C.3        1 UNL1     0.0661
     43 C         5.3597   -7.223412   -2.910035 C.2        1 UNL1     0.2131
     44 O         6.196589   -8.099843   -2.79077 O.2        1 UNL1     -0.2851
     45 O         4.182564   -9.767675   -2.832812 O.3        1 UNL1     -0.5056
     46 O         0.635051   -4.414495   -1.815127 O.2        1 UNL1     -0.2836
     47 C         -0.77362   -1.396193   -4.852842 C.3        1 UNL1     -0.0566
     48 O         -0.258595   0.652283   -2.936968 O.3        1 UNL1     -0.3909
     49 C         -1.021483   0.248895   0.135065 C.3        1 UNL1     -0.0577
     50 O         -3.211199   -2.231074   -1.298332 O.3        1 UNL1     -0.3910
     51 O         -4.038545   -3.731998   0.979293 O.3        1 UNL1     -0.3753
     52 C         -0.627585   -2.33135   1.691761 C.3        1 UNL1     -0.0564
     53 O         -2.656929   -0.040263   2.851529 O.3        1 UNL1     -0.4608
     54 C         -3.455839   0.924159   3.407912 C.2        1 UNL1     0.3042
     55 O         -3.361788   1.41459   4.532399 O.2        1 UNL1     -0.2512
     56 C         -4.512876   1.441659   2.474327 C.3        1 UNL1     0.0332
     57 C         -5.379074   -1.557376   0.843699 C.3        1 UNL1     -0.0567
     58 C         0.259734   -6.535127   0.678692 C.3        1 UNL1     0.0210
     59 C         -4.705636   -4.981322   0.805959 C.3        1 UNL1     0.0372
     60 C         -1.904025   -4.576964   0.601536 C.2        1 UNL1     -0.0208
     61 C         -2.219   -5.183351   -0.543816 C.2        1 UNL1     0.0882
     62 H         0.013142   -2.58574   -3.255875 H        1 UNL1     0.0365
     63 H         1.54971   -3.573641   -4.168693 H        1 UNL1     0.0576
     64 H         3.350319   -1.624896   -5.736167 H        1 UNL1     0.0615
     65 H         3.533423   -4.688299   -5.153163 H        1 UNL1     0.0622
     66 H         -2.831067   -4.449106   2.457442 H        1 UNL1     0.0645
     67 H         -2.014036   -2.621727   3.159832 H        1 UNL1     0.0362
     68 H         -3.895331   -1.563979   2.762501 H        1 UNL1     0.0741
     69 H         -4.285075   0.14824   0.776853 H        1 UNL1     0.0359
     70 H         -3.905138   -0.355377   -1.368264 H        1 UNL1     0.0600
     71 H         -2.07224   0.793194   -1.529447 H        1 UNL1     0.0348
     72 H         -1.28128   -1.237791   -2.616428 H        1 UNL1     0.0602
     73 H         -0.935761   -4.701285   1.018978 H        1 UNL1     0.0628
     74 H         -3.168317   -5.059963   -1.066129 H        1 UNL1     0.1022
     75 H         6.496647   -2.542184   -6.973015 H        1 UNL1     0.0279
     76 H         7.527442   -3.452425   -5.942373 H        1 UNL1     0.0279
     77 H         6.935779   -4.106074   -7.522872 H        1 UNL1     0.0279
     78 H         7.060604   -4.682112   -4.108315 H        1 UNL1     0.1553
     79 H         6.110552   -3.107282   -3.371065 H        1 UNL1     0.1484
     80 H         4.415865   -2.069327   -0.132211 H        1 UNL1     0.0317
     81 H         5.202296   -3.628117   -0.336234 H        1 UNL1     0.0317
     82 H         7.072516   -2.579451   -1.638648 H        1 UNL1     0.0428
     83 H         6.879457   -1.877259   -0.047624 H        1 UNL1     0.0428
     84 H         5.216788   0.298959   -3.30381 H        1 UNL1     0.0428
     85 H         6.039946   -1.168604   -3.701037 H        1 UNL1     0.0428
     86 H         3.549759   -1.265707   -3.581087 H        1 UNL1     0.0317
     87 H         3.511656   -0.805448   -1.941251 H        1 UNL1     0.0317
     88 H         7.644884   0.315932   -0.559256 H        1 UNL1     0.0429
     89 H         8.184259   -0.281471   -2.130376 H        1 UNL1     0.0429
     90 H         7.052876   1.507208   -3.291098 H        1 UNL1     0.0308
     91 H         5.360262   2.993468   -2.257855 H        1 UNL1     0.0233
     92 H         4.862127   1.297401   -2.032659 H        1 UNL1     0.0233
     93 H         5.536944   2.20361   -0.695494 H        1 UNL1     0.0233
     94 H         7.873287   2.982158   -0.811307 H        1 UNL1     0.0233
     95 H         9.063763   2.070564   -1.752632 H        1 UNL1     0.0233
     96 H         8.150377   3.391929   -2.516641 H        1 UNL1     0.0233
     97 H         1.499026   -10.422486   -0.631077 H        1 UNL1     0.0280
     98 H         0.44805   -10.358584   -2.019801 H        1 UNL1     0.0280
     99 H         2.085526   -11.060976   -2.178066 H        1 UNL1     0.0280
     100 H         3.751431   -10.603793   -2.807278 H        1 UNL1     0.2922
     101 H         -1.678303   -1.005071   -4.387838 H        1 UNL1     0.0236
     102 H         -0.977043   -2.267902   -5.473911 H        1 UNL1     0.0236
     103 H         -0.462293   -0.611813   -5.562783 H        1 UNL1     0.0236
     104 H         -0.7192   1.29103   -2.358335 H        1 UNL1     0.2098
     105 H         -1.079808   1.314716   0.341065 H        1 UNL1     0.0234
     106 H         -1.310813   -0.322682   1.016833 H        1 UNL1     0.0234
     107 H         0.0   0.0   0.0 H        1 UNL1     0.0234
     108 H         -2.331019   -2.410885   -1.681372 H        1 UNL1     0.2098
     109 H         0.022773   -2.282342   2.576264 H        1 UNL1     0.0234
     110 H         -0.280487   -3.128408   1.025455 H        1 UNL1     0.0234
     111 H         -0.432595   -1.409341   1.128001 H        1 UNL1     0.0234
     112 H         -5.105808   2.213357   2.974588 H        1 UNL1     0.0342
     113 H         -4.089477   1.816311   1.543622 H        1 UNL1     0.0342
     114 H         -5.185618   0.610137   2.223025 H        1 UNL1     0.0342
     115 H         -6.16963   -0.814187   1.016556 H        1 UNL1     0.0234
     116 H         -5.666548   -2.145357   -0.030192 H        1 UNL1     0.0234
     117 H         -5.489388   -2.197304   1.736036 H        1 UNL1     0.0234
     118 H         -0.476044   -6.041699   1.337604 H        1 UNL1     0.0309
     119 H         0.450315   -7.547299   1.049353 H        1 UNL1     0.0309
     120 H         1.179754   -5.968195   0.858293 H        1 UNL1     0.0309
     121 H         -5.775646   -4.78028   0.761028 H        1 UNL1     0.0524
     122 H         -4.421743   -5.480077   -0.135681 H        1 UNL1     0.0524
     123 H         -4.483434   -5.644541   1.637139 H        1 UNL1     0.0524
@<TRIPOS>BOND
     1     1     2    1
     2     1    42    1
     3     2     3    2
     4     3     4    1
     5     4     5    2
     6     5     7    1
     7     6    75    1
     8     6    76    1
     9     6    77    1
    10     7     9   am
    11     9    10    1
    12    10    11    2
    13    10    43    1
    14    11    14    1
    15    11    15    1
    16    12    13   ar
    17    12    27   ar
    18    12    43    1
    19    13    14    1
    20    13    30   ar
    21    14    17    2
    22    15    16    1
    23    16    17    1
    24    16    18    1
    25    16    22    1
    26    18    19    1
    27    19    20    1
    28    20    21    1
    29    21    22    1
    30    23    24    1
    31    23    88    1
    32    23    89    1
    33    24    25    1
    34    24    26    1
    35    24    90    1
    36    25    91    1
    37    25    92    1
    38    25    93    1
    39    26    94    1
    40    26    95    1
    41    26    96    1
    42    27    28   ar
    43    28    29   ar
    44    29    30   ar
    45    29    31    1
    46    30    33    1
    47    31    32    1
    48    32    33    1
    49    32    35    1
    50    34    97    1
    51    34    98    1
    52    34    99    1
    53    35    61    1
    54    36    37    1
    55    36    60    1
    56    37    38    1
    57    38    39    1
    58    39    40    1
    59    40    41    1
    60    41    42    1
    61    45   100    1
    62    47   101    1
    63    47   102    1
    64    47   103    1
    65    48   104    1
    66    49   105    1
    67    49   106    1
    68    49   107    1
    69    50   108    1
    70    51    59    1
    71    52   109    1
    72    52   110    1
    73    52   111    1
    74    53    54    1
    75    54    55    2
    76    54    56    1
    77    56   112    1
    78    56   113    1
    79    56   114    1
    80    57   115    1
    81    57   116    1
    82    57   117    1
    83    58   118    1
    84    58   119    1
    85    58   120    1
    86    59   121    1
    87    59   122    1
    88    59   123    1
    89    60    61    2
    90     1    47    1
    91     1    62    1
    92     2    63    1
    93     3    64    1
    94     4    65    1
    95     5     6    1
    96     7     8    2
    97     9    78    1
    98    15    79    1
    99    18    80    1
   100    18    81    1
   101    19    82    1
   102    19    83    1
   103    20    23    1
   104    21    84    1
   105    21    85    1
   106    22    86    1
   107    22    87    1
   108    27    45    1
   109    28    34    1
   110    32    58    1
   111    33    46    2
   112    36    51    1
   113    36    66    1
   114    37    52    1
   115    37    67    1
   116    38    53    1
   117    38    68    1
   118    42    48    1
   119    42    72    1
   120    43    44    2
   121    60    73    1
   122    61    74    1
   123    39    69    1
   124    39    57    1
   125    40    70    1
   126    40    50    1
   127    41    71    1
   128    41    49    1
