@<TRIPOS>MOLECULE
*****
 123 128 0 0 0
SMALL
GASTEIGER

@<TRIPOS>ATOM
     1 C         5.167187   1.750403   0.48533 C.3        1 UNL1     0.0009
     2 C         6.603478   2.55469   -0.367446 C.2        1 UNL1     -0.0787
     3 C         7.885115   2.455095   -1.033428 C.2        1 UNL1     -0.0649
     4 C         8.762162   3.688562   -1.792181 C.2        1 UNL1     -0.0542
     5 C         9.781807   3.979145   -2.731842 C.2        1 UNL1     0.0115
     6 C         10.909739   3.35182   -3.596455 C.3        1 UNL1     -0.0348
     7 C         9.876776   5.461013   -3.341791 C.2        1 UNL1     0.2441
     8 O         10.700724   6.283604   -2.966317 O.2        1 UNL1     -0.2702
     9 N         9.126095   5.665218   -4.512658 N.am        1 UNL1     -0.2772
     10 C         7.843461   6.052498   -4.19931 C.2        1 UNL1     0.1049
     11 C         6.997877   5.081679   -3.904826 C.2        1 UNL1     0.0801
     12 C         6.545447   7.662266   -2.79178 C.ar        1 UNL1     0.0753
     13 C         5.786665   6.535311   -2.341413 C.ar        1 UNL1     0.0305
     14 C         5.903477   5.228141   -2.98384 C.2        1 UNL1     0.0924
     15 N         7.120564   3.752351   -4.060905 N.pl3        1 UNL1     -0.3170
     16 C         5.85088   3.153785   -3.744875 C.3        1 UNL1     0.1275
     17 N         5.214758   4.11121   -2.766912 N.2        1 UNL1     -0.2557
     18 C         4.99755   3.20987   -5.008356 C.3        1 UNL1     0.0016
     19 C         5.752071   2.523256   -6.135675 C.3        1 UNL1     0.0026
     20 N         6.022489   1.146071   -5.746751 N.3        1 UNL1     -0.3018
     21 C         6.786328   0.988598   -4.507347 C.3        1 UNL1     0.0026
     22 C         6.007939   1.68162   -3.387648 C.3        1 UNL1     0.0016
     23 C         6.466656   0.324025   -6.854722 C.3        1 UNL1     0.0012
     24 C         5.310865   0.072184   -7.835783 C.3        1 UNL1     -0.0339
     25 C         5.385935   1.01582   -9.047382 C.3        1 UNL1     -0.0615
     26 C         5.298152   -1.385417   -8.262419 C.3        1 UNL1     -0.0615
     27 C         6.34087   8.931179   -2.255004 C.ar        1 UNL1     0.1347
     28 C         5.382148   9.202844   -1.295264 C.ar        1 UNL1     0.0342
     29 C         4.680868   8.069391   -0.831958 C.ar        1 UNL1     0.1435
     30 C         4.900241   6.786225   -1.334532 C.ar        1 UNL1     0.0774
     31 O         3.640189   8.184823   0.021663 O.3        1 UNL1     -0.4436
     32 C         2.918574   6.951612   -0.117386 C.3        1 UNL1     0.3143
     33 C         3.931763   5.957379   -0.647632 C.2        1 UNL1     0.2504
     34 C         4.935348   10.569917   -0.857565 C.3        1 UNL1     -0.0327
     35 O         2.55848   6.517911   1.199994 O.2        1 UNL1     -0.4528
     36 C         -0.684535   4.584512   0.808952 C.3        1 UNL1     0.0854
     37 C         -0.990065   3.321834   -0.085374 C.3        1 UNL1     0.0236
     38 C         -1.590199   2.062554   0.705698 C.3        1 UNL1     0.1131
     39 C         -0.863892   1.53469   2.008045 C.3        1 UNL1     0.0200
     40 C         0.797329   1.389396   2.048911 C.3        1 UNL1     0.0661
     41 C         1.756322   0.617961   0.881507 C.3        1 UNL1     0.0091
     42 C         3.463658   0.979375   0.316011 C.3        1 UNL1     0.0661
     43 C         7.495078   7.452066   -3.912617 C.2        1 UNL1     0.2131
     44 O         7.8946   8.348521   -4.633373 O.2        1 UNL1     -0.2851
     45 O         7.152863   9.9653   -2.716195 O.3        1 UNL1     -0.5056
     46 O         3.947915   4.754151   -0.514082 O.2        1 UNL1     -0.2836
     47 C         5.564144   1.324286   1.924368 C.3        1 UNL1     -0.0566
     48 O         3.912386   -0.431496   0.400884 O.3        1 UNL1     -0.3909
     49 C         0.921678   0.382428   -0.3576 C.3        1 UNL1     -0.0577
     50 O         1.397566   2.608219   2.438668 O.3        1 UNL1     -0.3910
     51 O         -0.808068   4.398044   2.200857 O.3        1 UNL1     -0.3753
     52 C         0.053959   3.158795   -1.237928 C.3        1 UNL1     -0.0564
     53 O         -2.193054   1.021437   -0.191501 O.3        1 UNL1     -0.4608
     54 C         -2.414719   -0.287898   0.146785 C.2        1 UNL1     0.3042
     55 O         -1.842135   -1.281627   -0.298738 O.2        1 UNL1     -0.2512
     56 C         -3.443901   -0.464051   1.226816 C.3        1 UNL1     0.0332
     57 C         -1.584493   2.206535   3.26802 C.3        1 UNL1     -0.0567
     58 C         1.842935   7.194094   -1.201698 C.3        1 UNL1     0.0210
     59 C         -1.121086   5.57873   2.938329 C.3        1 UNL1     0.0372
     60 C         0.644313   5.213182   0.576363 C.2        1 UNL1     -0.0208
     61 C         1.557547   5.65051   1.444403 C.2        1 UNL1     0.0882
     62 H         4.69121   2.734731   0.570503 H        1 UNL1     0.0365
     63 H         6.337175   3.608707   -0.264479 H        1 UNL1     0.0576
     64 H         8.342772   1.487777   -1.252414 H        1 UNL1     0.0615
     65 H         8.275131   4.604715   -1.447294 H        1 UNL1     0.0622
     66 H         -1.429374   5.330252   0.497291 H        1 UNL1     0.0645
     67 H         -1.85588   3.629704   -0.697044 H        1 UNL1     0.0362
     68 H         -2.537171   2.500159   1.056793 H        1 UNL1     0.0741
     69 H         -1.195246   0.524018   2.205921 H        1 UNL1     0.0359
     70 H         0.909511   0.73112   2.931605 H        1 UNL1     0.0600
     71 H         1.800165   -0.402208   1.310799 H        1 UNL1     0.0348
     72 H         3.358117   1.469842   1.294592 H        1 UNL1     0.0602
     73 H         0.761784   5.408036   -0.460691 H        1 UNL1     0.0628
     74 H         1.540441   5.442327   2.514732 H        1 UNL1     0.1022
     75 H         10.93576   2.24346   -3.462683 H        1 UNL1     0.0279
     76 H         10.809111   3.455365   -4.674519 H        1 UNL1     0.0279
     77 H         11.915715   3.63522   -3.253822 H        1 UNL1     0.0279
     78 H         9.063966   4.794048   -5.03542 H        1 UNL1     0.1553
     79 H         7.785629   3.322987   -4.677564 H        1 UNL1     0.1484
     80 H         4.03639   2.719303   -4.812702 H        1 UNL1     0.0317
     81 H         4.770742   4.245971   -5.281676 H        1 UNL1     0.0317
     82 H         6.682589   3.054064   -6.385262 H        1 UNL1     0.0428
     83 H         5.126562   2.576273   -7.02729 H        1 UNL1     0.0428
     84 H         6.906863   -0.053622   -4.195804 H        1 UNL1     0.0428
     85 H         7.816346   1.35648   -4.612427 H        1 UNL1     0.0428
     86 H         6.524743   1.433413   -2.479191 H        1 UNL1     0.0317
     87 H         5.028586   1.204189   -3.261062 H        1 UNL1     0.0317
     88 H         7.262462   0.864666   -7.383584 H        1 UNL1     0.0429
     89 H         6.899475   -0.620891   -6.50177 H        1 UNL1     0.0429
     90 H         4.358365   0.241553   -7.319768 H        1 UNL1     0.0308
     91 H         6.340758   0.914427   -9.571916 H        1 UNL1     0.0233
     92 H         4.570081   0.813916   -9.745397 H        1 UNL1     0.0233
     93 H         5.290207   2.070422   -8.761927 H        1 UNL1     0.0233
     94 H         4.605748   -1.528037   -9.099122 H        1 UNL1     0.0233
     95 H         6.295562   -1.686026   -8.59524 H        1 UNL1     0.0233
     96 H         4.988001   -2.038645   -7.442011 H        1 UNL1     0.0233
     97 H         4.13601   10.521906   -0.124091 H        1 UNL1     0.0280
     98 H         5.745814   11.137659   -0.382097 H        1 UNL1     0.0280
     99 H         4.570082   11.135767   -1.730199 H        1 UNL1     0.0280
     100 H         6.68565   10.715643   -3.039181 H        1 UNL1     0.2922
     101 H         4.698428   0.903171   2.435108 H        1 UNL1     0.0236
     102 H         6.026174   2.127629   2.497214 H        1 UNL1     0.0236
     103 H         6.311289   0.513135   1.924836 H        1 UNL1     0.0236
     104 H         4.326898   -0.556983   1.2769 H        1 UNL1     0.2098
     105 H         0.708721   1.279903   -0.932926 H        1 UNL1     0.0234
     106 H         1.290879   -0.407086   -1.012035 H        1 UNL1     0.0234
     107 H         0.0   -0.0   0.0 H        1 UNL1     0.0234
     108 H         1.213702   3.260153   1.735145 H        1 UNL1     0.2098
     109 H         1.080403   3.058689   -0.858319 H        1 UNL1     0.0234
     110 H         -0.172008   2.322498   -1.908219 H        1 UNL1     0.0234
     111 H         0.06602   4.034841   -1.900004 H        1 UNL1     0.0234
     112 H         -3.557285   -1.526427   1.463137 H        1 UNL1     0.0342
     113 H         -3.203322   0.111279   2.119542 H        1 UNL1     0.0342
     114 H         -4.407492   -0.099198   0.845319 H        1 UNL1     0.0342
     115 H         -2.654078   1.958249   3.307128 H        1 UNL1     0.0234
     116 H         -1.147627   1.929055   4.229374 H        1 UNL1     0.0234
     117 H         -1.623214   3.308271   3.216839 H        1 UNL1     0.0234
     118 H         0.941357   7.680468   -0.789868 H        1 UNL1     0.0309
     119 H         2.211486   7.781439   -2.048693 H        1 UNL1     0.0309
     120 H         1.455388   6.261145   -1.625395 H        1 UNL1     0.0309
     121 H         -0.283156   6.266866   2.830164 H        1 UNL1     0.0524
     122 H         -2.020185   6.087174   2.552137 H        1 UNL1     0.0524
     123 H         -1.275169   5.337531   3.986267 H        1 UNL1     0.0524
@<TRIPOS>BOND
     1     1     2    1
     2     1    42    1
     3     2     3    2
     4     3     4    1
     5     4     5    2
     6     5     7    1
     7     6    75    1
     8     6    76    1
     9     6    77    1
    10     7     9   am
    11     9    10    1
    12    10    11    2
    13    10    43    1
    14    11    14    1
    15    11    15    1
    16    12    13   ar
    17    12    27   ar
    18    12    43    1
    19    13    14    1
    20    13    30   ar
    21    14    17    2
    22    15    16    1
    23    16    17    1
    24    16    18    1
    25    16    22    1
    26    18    19    1
    27    19    20    1
    28    20    21    1
    29    21    22    1
    30    23    24    1
    31    23    88    1
    32    23    89    1
    33    24    25    1
    34    24    26    1
    35    24    90    1
    36    25    91    1
    37    25    92    1
    38    25    93    1
    39    26    94    1
    40    26    95    1
    41    26    96    1
    42    27    28   ar
    43    28    29   ar
    44    29    30   ar
    45    29    31    1
    46    30    33    1
    47    31    32    1
    48    32    33    1
    49    32    35    1
    50    34    97    1
    51    34    98    1
    52    34    99    1
    53    35    61    1
    54    36    37    1
    55    36    60    1
    56    37    38    1
    57    38    39    1
    58    39    40    1
    59    40    41    1
    60    41    42    1
    61    45   100    1
    62    47   101    1
    63    47   102    1
    64    47   103    1
    65    48   104    1
    66    49   105    1
    67    49   106    1
    68    49   107    1
    69    50   108    1
    70    51    59    1
    71    52   109    1
    72    52   110    1
    73    52   111    1
    74    53    54    1
    75    54    55    2
    76    54    56    1
    77    56   112    1
    78    56   113    1
    79    56   114    1
    80    57   115    1
    81    57   116    1
    82    57   117    1
    83    58   118    1
    84    58   119    1
    85    58   120    1
    86    59   121    1
    87    59   122    1
    88    59   123    1
    89    60    61    2
    90     1    47    1
    91     1    62    1
    92     2    63    1
    93     3    64    1
    94     4    65    1
    95     5     6    1
    96     7     8    2
    97     9    78    1
    98    15    79    1
    99    18    80    1
   100    18    81    1
   101    19    82    1
   102    19    83    1
   103    20    23    1
   104    21    84    1
   105    21    85    1
   106    22    86    1
   107    22    87    1
   108    27    45    1
   109    28    34    1
   110    32    58    1
   111    33    46    2
   112    36    51    1
   113    36    66    1
   114    37    52    1
   115    37    67    1
   116    38    53    1
   117    38    68    1
   118    42    48    1
   119    42    72    1
   120    43    44    2
   121    60    73    1
   122    61    74    1
   123    39    69    1
   124    39    57    1
   125    40    70    1
   126    40    50    1
   127    41    71    1
   128    41    49    1
