@<TRIPOS>MOLECULE
*****
 123 128 0 0 0
SMALL
GASTEIGER

@<TRIPOS>ATOM
     1 C         3.424698   3.962057   1.607888 C.3        1 UNL1     0.0009
     2 C         4.24321   4.790393   3.050432 C.2        1 UNL1     -0.0787
     3 C         4.325392   5.893252   3.984774 C.2        1 UNL1     -0.0649
     4 C         5.350896   6.04926   5.322817 C.2        1 UNL1     -0.0542
     5 C         5.557135   6.715112   6.556181 C.2        1 UNL1     0.0115
     6 C         5.05964   7.88218   7.452715 C.3        1 UNL1     -0.0348
     7 C         6.583312   6.084442   7.61741 C.2        1 UNL1     0.2441
     8 O         7.716116   6.514993   7.784461 O.2        1 UNL1     -0.2702
     9 N         6.009222   5.175826   8.523494 N.am        1 UNL1     -0.2772
     10 C         6.022208   3.903169   8.000523 C.2        1 UNL1     0.1049
     11 C         5.035628   3.602842   7.175487 C.2        1 UNL1     0.0801
     12 C         7.513201   2.231043   6.887747 C.ar        1 UNL1     0.0753
     13 C         6.490013   2.095409   5.896132 C.ar        1 UNL1     0.0305
     14 C         5.163533   2.679801   6.080493 C.2        1 UNL1     0.0924
     15 N         3.894647   4.264299   6.916327 N.pl3        1 UNL1     -0.3170
     16 C         3.083728   3.427618   6.072152 C.3        1 UNL1     0.1275
     17 N         4.075973   2.57257   5.322442 N.2        1 UNL1     -0.2557
     18 C         2.311061   2.479126   6.983772 C.3        1 UNL1     0.0016
     19 C         1.525509   3.304363   7.99049 C.3        1 UNL1     0.0026
     20 N         0.621785   4.188219   7.267227 N.3        1 UNL1     -0.3018
     21 C         1.268224   5.097268   6.318482 C.3        1 UNL1     0.0026
     22 C         2.047755   4.246969   5.313884 C.3        1 UNL1     0.0016
     23 C         -0.376891   4.796848   8.123299 C.3        1 UNL1     0.0012
     24 C         -0.554607   3.976858   9.410851 C.3        1 UNL1     -0.0339
     25 C         0.183018   4.622762   10.595239 C.3        1 UNL1     -0.0615
     26 C         -2.031992   3.788011   9.708258 C.3        1 UNL1     -0.0615
     27 C         8.733265   1.571149   6.760864 C.ar        1 UNL1     0.1347
     28 C         9.029494   0.720461   5.710803 C.ar        1 UNL1     0.0342
     29 C         8.026081   0.640664   4.721886 C.ar        1 UNL1     0.1435
     30 C         6.813348   1.324293   4.817546 C.ar        1 UNL1     0.0774
     31 O         8.118442   -0.22965   3.692794 O.3        1 UNL1     -0.4436
     32 C         6.773744   -0.361848   3.207836 C.3        1 UNL1     0.3143
     33 C         6.066847   0.903328   3.650373 C.2        1 UNL1     0.2504
     34 C         10.207301   -0.210804   5.63585 C.3        1 UNL1     -0.0327
     35 O         6.8319   -0.328372   1.776491 O.2        1 UNL1     -0.4528
     36 C         3.922311   -2.44485   0.566987 C.3        1 UNL1     0.0854
     37 C         2.382684   -2.289272   0.871729 C.3        1 UNL1     0.0236
     38 C         1.444553   -2.182582   -0.424523 C.3        1 UNL1     0.1131
     39 C         1.792535   -1.139689   -1.561867 C.3        1 UNL1     0.0200
     40 C         2.261143   0.412558   -1.170233 C.3        1 UNL1     0.0661
     41 C         1.458201   1.451868   -0.096582 C.3        1 UNL1     0.0091
     42 C         2.117097   2.74971   1.02005 C.3        1 UNL1     0.0661
     43 C         7.1986   3.026537   8.100379 C.2        1 UNL1     0.2131
     44 O         7.791369   2.905648   9.157143 O.2        1 UNL1     -0.2851
     45 O         9.692226   1.792879   7.747104 O.3        1 UNL1     -0.5056
     46 O         5.115528   1.452433   3.141129 O.2        1 UNL1     -0.2836
     47 C         3.80132   4.684374   0.286375 C.3        1 UNL1     -0.0566
     48 O         1.120272   3.768459   0.610652 O.3        1 UNL1     -0.3909
     49 C         0.456749   0.648634   0.703046 C.3        1 UNL1     -0.0577
     50 O         3.655992   0.474585   -0.950522 O.3        1 UNL1     -0.3910
     51 O         4.301181   -2.296778   -0.782815 O.3        1 UNL1     -0.3753
     52 C         2.127193   -1.433774   2.155395 C.3        1 UNL1     -0.0564
     53 O         -0.012559   -2.388375   -0.129902 O.3        1 UNL1     -0.4608
     54 C         -0.99981   -2.539916   -1.068145 C.2        1 UNL1     0.3042
     55 O         -1.093973   -1.966322   -2.152563 O.2        1 UNL1     -0.2512
     56 C         -2.024294   -3.575551   -0.70126 C.3        1 UNL1     0.0332
     57 C         2.632505   -1.911272   -2.683154 C.3        1 UNL1     -0.0567
     58 C         6.155572   -1.566235   3.955396 C.3        1 UNL1     0.0210
     59 C         5.704545   -2.385826   -1.024695 C.3        1 UNL1     0.0372
     60 C         4.813674   -1.557562   1.362821 C.2        1 UNL1     -0.0208
     61 C         5.857859   -0.818421   0.985869 C.2        1 UNL1     0.0882
     62 H         4.123883   3.124211   1.716817 H        1 UNL1     0.0365
     63 H         5.080857   4.11222   3.22621 H        1 UNL1     0.0576
     64 H         3.578582   6.690273   3.996658 H        1 UNL1     0.0615
     65 H         6.096829   5.264122   5.172407 H        1 UNL1     0.0622
     66 H         4.162952   -3.471152   0.878182 H        1 UNL1     0.0645
     67 H         2.088432   -3.273753   1.275182 H        1 UNL1     0.0362
     68 H         1.631525   -3.172096   -0.868851 H        1 UNL1     0.0741
     69 H         0.909916   -0.975715   -2.16561 H        1 UNL1     0.0359
     70 H         2.112847   0.909005   -2.148297 H        1 UNL1     0.0600
     71 H         0.793376   1.984849   -0.804323 H        1 UNL1     0.0348
     72 H         2.89999   2.569743   0.269046 H        1 UNL1     0.0602
     73 H         4.587233   -1.669214   2.394085 H        1 UNL1     0.0628
     74 H         6.121586   -0.607086   -0.050965 H        1 UNL1     0.1022
     75 H         4.856123   7.520762   8.489533 H        1 UNL1     0.0279
     76 H         5.760365   8.696696   7.621878 H        1 UNL1     0.0279
     77 H         4.068704   8.254842   7.154607 H        1 UNL1     0.0279
     78 H         5.037507   5.428091   8.691455 H        1 UNL1     0.1553
     79 H         3.506861   4.964338   7.52172 H        1 UNL1     0.1484
     80 H         1.647567   1.85628   6.371722 H        1 UNL1     0.0317
     81 H         2.990902   1.795763   7.50385 H        1 UNL1     0.0317
     82 H         2.189862   3.87561   8.655491 H        1 UNL1     0.0428
     83 H         0.9835   2.6084   8.631515 H        1 UNL1     0.0428
     84 H         0.562405   5.69319   5.731533 H        1 UNL1     0.0428
     85 H         1.889917   5.84602   6.828565 H        1 UNL1     0.0428
     86 H         2.394977   4.931908   4.562695 H        1 UNL1     0.0317
     87 H         1.360327   3.593371   4.763114 H        1 UNL1     0.0317
     88 H         -0.027748   5.801796   8.394355 H        1 UNL1     0.0429
     89 H         -1.332196   4.919394   7.596849 H        1 UNL1     0.0429
     90 H         -0.14951   2.970079   9.254305 H        1 UNL1     0.0308
     91 H         0.002532   4.072952   11.523805 H        1 UNL1     0.0233
     92 H         1.258164   4.662754   10.405317 H        1 UNL1     0.0233
     93 H         -0.135111   5.657487   10.771232 H        1 UNL1     0.0233
     94 H         -2.2081   3.829433   10.788584 H        1 UNL1     0.0233
     95 H         -2.612464   4.588515   9.241131 H        1 UNL1     0.0233
     96 H         -2.394215   2.825731   9.335727 H        1 UNL1     0.0233
     97 H         11.142813   0.325071   5.505908 H        1 UNL1     0.0280
     98 H         10.325248   -0.80346   6.552421 H        1 UNL1     0.0280
     99 H         10.081081   -0.897545   4.782885 H        1 UNL1     0.0280
     100 H         9.471103   1.445574   8.593335 H        1 UNL1     0.2922
     101 H         3.52151   4.063654   -0.564548 H        1 UNL1     0.0236
     102 H         4.847361   4.986284   0.245968 H        1 UNL1     0.0236
     103 H         3.233383   5.619702   0.149261 H        1 UNL1     0.0236
     104 H         0.928772   3.629408   -0.337485 H        1 UNL1     0.2098
     105 H         0.89564   0.034964   1.48573 H        1 UNL1     0.0234
     106 H         -0.37794   1.226577   1.099533 H        1 UNL1     0.0234
     107 H         -0.0   0.0   0.0 H        1 UNL1     0.0234
     108 H         3.842698   1.325956   -0.509982 H        1 UNL1     0.2098
     109 H         1.211505   -0.831062   2.078164 H        1 UNL1     0.0234
     110 H         2.095705   -2.032234   3.072236 H        1 UNL1     0.0234
     111 H         2.940429   -0.717466   2.332866 H        1 UNL1     0.0234
     112 H         -2.787091   -3.637849   -1.483312 H        1 UNL1     0.0342
     113 H         -1.573915   -4.549608   -0.516287 H        1 UNL1     0.0342
     114 H         -2.518456   -3.255728   0.226469 H        1 UNL1     0.0342
     115 H         2.430775   -1.516512   -3.688469 H        1 UNL1     0.0234
     116 H         3.712881   -1.879814   -2.528726 H        1 UNL1     0.0234
     117 H         2.336592   -2.96739   -2.80559 H        1 UNL1     0.0234
     118 H         5.051878   -1.544159   3.935963 H        1 UNL1     0.0309
     119 H         6.501245   -2.532189   3.573759 H        1 UNL1     0.0309
     120 H         6.389469   -1.561743   5.025619 H        1 UNL1     0.0309
     121 H         5.85377   -3.086444   -1.845805 H        1 UNL1     0.0524
     122 H         6.138615   -1.419195   -1.330055 H        1 UNL1     0.0524
     123 H         6.217876   -2.737239   -0.134137 H        1 UNL1     0.0524
@<TRIPOS>BOND
     1     1     2    1
     2     1    42    1
     3     2     3    2
     4     3     4    1
     5     4     5    2
     6     5     7    1
     7     6    75    1
     8     6    76    1
     9     6    77    1
    10     7     9   am
    11     9    10    1
    12    10    11    2
    13    10    43    1
    14    11    14    1
    15    11    15    1
    16    12    13   ar
    17    12    27   ar
    18    12    43    1
    19    13    14    1
    20    13    30   ar
    21    14    17    2
    22    15    16    1
    23    16    17    1
    24    16    18    1
    25    16    22    1
    26    18    19    1
    27    19    20    1
    28    20    21    1
    29    21    22    1
    30    23    24    1
    31    23    88    1
    32    23    89    1
    33    24    25    1
    34    24    26    1
    35    24    90    1
    36    25    91    1
    37    25    92    1
    38    25    93    1
    39    26    94    1
    40    26    95    1
    41    26    96    1
    42    27    28   ar
    43    28    29   ar
    44    29    30   ar
    45    29    31    1
    46    30    33    1
    47    31    32    1
    48    32    33    1
    49    32    35    1
    50    34    97    1
    51    34    98    1
    52    34    99    1
    53    35    61    1
    54    36    37    1
    55    36    60    1
    56    37    38    1
    57    38    39    1
    58    39    40    1
    59    40    41    1
    60    41    42    1
    61    45   100    1
    62    47   101    1
    63    47   102    1
    64    47   103    1
    65    48   104    1
    66    49   105    1
    67    49   106    1
    68    49   107    1
    69    50   108    1
    70    51    59    1
    71    52   109    1
    72    52   110    1
    73    52   111    1
    74    53    54    1
    75    54    55    2
    76    54    56    1
    77    56   112    1
    78    56   113    1
    79    56   114    1
    80    57   115    1
    81    57   116    1
    82    57   117    1
    83    58   118    1
    84    58   119    1
    85    58   120    1
    86    59   121    1
    87    59   122    1
    88    59   123    1
    89    60    61    2
    90     1    47    1
    91     1    62    1
    92     2    63    1
    93     3    64    1
    94     4    65    1
    95     5     6    1
    96     7     8    2
    97     9    78    1
    98    15    79    1
    99    18    80    1
   100    18    81    1
   101    19    82    1
   102    19    83    1
   103    20    23    1
   104    21    84    1
   105    21    85    1
   106    22    86    1
   107    22    87    1
   108    27    45    1
   109    28    34    1
   110    32    58    1
   111    33    46    2
   112    36    51    1
   113    36    66    1
   114    37    52    1
   115    37    67    1
   116    38    53    1
   117    38    68    1
   118    42    48    1
   119    42    72    1
   120    43    44    2
   121    60    73    1
   122    61    74    1
   123    39    69    1
   124    39    57    1
   125    40    70    1
   126    40    50    1
   127    41    71    1
   128    41    49    1
