@<TRIPOS>MOLECULE
*****
 123 128 0 0 0
SMALL
GASTEIGER

@<TRIPOS>ATOM
     1 C         4.857733   2.423844   0.734272 C.3        1 UNL1     0.0009
     2 C         6.237199   3.369103   -0.0661 C.2        1 UNL1     -0.0787
     3 C         7.569209   3.409626   -0.631921 C.2        1 UNL1     -0.0649
     4 C         8.331714   4.707707   -1.406471 C.2        1 UNL1     -0.0542
     5 C         9.374632   5.082844   -2.288896 C.2        1 UNL1     0.0115
     6 C         10.640555   4.569283   -3.028502 C.3        1 UNL1     -0.0348
     7 C         9.319715   6.527398   -2.98692 C.2        1 UNL1     0.2441
     8 O         9.994879   7.47504   -2.609223 O.2        1 UNL1     -0.2702
     9 N         8.643273   6.560955   -4.218769 N.am        1 UNL1     -0.2772
     10 C         7.299876   6.785153   -4.022958 C.2        1 UNL1     0.1049
     11 C         6.570184   5.725274   -3.72559 C.2        1 UNL1     0.0801
     12 C         5.692579   8.277171   -2.819707 C.ar        1 UNL1     0.0753
     13 C         5.057093   7.083495   -2.35077 C.ar        1 UNL1     0.0305
     14 C         5.396823   5.771036   -2.895826 C.2        1 UNL1     0.0924
     15 N         6.8803   4.418805   -3.784697 N.pl3        1 UNL1     -0.3170
     16 C         5.680449   3.669985   -3.520351 C.3        1 UNL1     0.1275
     17 N         4.847639   4.583896   -2.65495 N.2        1 UNL1     -0.2557
     18 C         4.929573   3.537793   -4.84187 C.3        1 UNL1     0.0016
     19 C         5.855165   2.899648   -5.865412 C.3        1 UNL1     0.0026
     20 N         6.274609   1.596516   -5.368479 N.3        1 UNL1     -0.3018
     21 C         6.952437   1.614802   -4.070564 C.3        1 UNL1     0.0026
     22 C         6.003013   2.25558   -3.056713 C.3        1 UNL1     0.0016
     23 C         6.910039   0.782867   -6.385754 C.3        1 UNL1     0.0012
     24 C         5.878962   0.320323   -7.427239 C.3        1 UNL1     -0.0339
     25 C         6.211436   -1.081799   -7.963494 C.3        1 UNL1     -0.0615
     26 C         4.48094   0.375792   -6.836277 C.3        1 UNL1     -0.0615
     27 C         5.279553   9.533848   -2.383484 C.ar        1 UNL1     0.1347
     28 C         4.220553   9.724235   -1.513817 C.ar        1 UNL1     0.0342
     29 C         3.64172   8.532755   -1.027512 C.ar        1 UNL1     0.1435
     30 C         4.068561   7.26592   -1.427709 C.ar        1 UNL1     0.0774
     31 O         2.530871   8.55146   -0.258961 O.3        1 UNL1     -0.4436
     32 C         1.992712   7.224972   -0.367059 C.3        1 UNL1     0.3143
     33 C         3.167637   6.35142   -0.75779 C.2        1 UNL1     0.2504
     34 C         3.562986   11.039181   -1.199777 C.3        1 UNL1     -0.0327
     35 O         1.590646   6.819977   0.947313 O.2        1 UNL1     -0.4528
     36 C         -1.325748   4.440514   0.456512 C.3        1 UNL1     0.0854
     37 C         -1.389331   3.099984   -0.372015 C.3        1 UNL1     0.0236
     38 C         -1.87737   1.816228   0.455955 C.3        1 UNL1     0.1131
     39 C         -1.192384   1.466567   1.838272 C.3        1 UNL1     0.0200
     40 C         0.464971   1.553439   2.005806 C.3        1 UNL1     0.0661
     41 C         1.607009   0.857276   0.962391 C.3        1 UNL1     0.0091
     42 C         3.290439   1.41781   0.49627 C.3        1 UNL1     0.0661
     43 C         6.747139   8.137347   -3.854411 C.2        1 UNL1     0.2131
     44 O         7.079627   9.038637   -4.602653 O.2        1 UNL1     -0.2851
     45 O         5.980798   10.642427   -2.853323 O.3        1 UNL1     -0.5056
     46 O         3.332903   5.171154   -0.54445 O.2        1 UNL1     -0.2836
     47 C         5.193025   2.137162   2.222686 C.3        1 UNL1     -0.0566
     48 O         3.914509   0.088928   0.705381 O.3        1 UNL1     -0.3909
     49 C         0.911411   0.440616   -0.314336 C.3        1 UNL1     -0.0577
     50 O         0.865346   2.862986   2.35582 O.3        1 UNL1     -0.3910
     51 O         -1.532815   4.316679   1.845476 O.3        1 UNL1     -0.3753
     52 C         -0.245274   3.018002   -1.43473 C.3        1 UNL1     -0.0564
     53 O         -2.263913   0.653791   -0.411022 O.3        1 UNL1     -0.4608
     54 C         -2.027998   -0.665262   -0.124012 C.2        1 UNL1     0.3042
     55 O         -1.152162   -1.387712   -0.59816 O.2        1 UNL1     -0.2512
     56 C         -2.936212   -1.222026   0.935173 C.3        1 UNL1     0.0332
     57 C         -2.092964   2.102157   2.997218 C.3        1 UNL1     -0.0567
     58 C         0.983302   7.256549   -1.538223 C.3        1 UNL1     0.0210
     59 C         -0.643981   5.08526   2.654873 C.3        1 UNL1     0.0372
     60 C         -0.078024   5.231884   0.277412 C.2        1 UNL1     -0.0208
     61 C         0.697681   5.838235   1.177059 C.2        1 UNL1     0.0882
     62 H         4.249992   3.336628   0.720591 H        1 UNL1     0.0365
     63 H         5.825953   4.380609   -0.051859 H        1 UNL1     0.0576
     64 H         8.167145   2.503692   -0.753841 H        1 UNL1     0.0615
     65 H         7.701623   5.56602   -1.157942 H        1 UNL1     0.0622
     66 H         -2.136129   5.058291   0.044588 H        1 UNL1     0.0645
     67 H         -2.237403   3.251392   -1.062239 H        1 UNL1     0.0362
     68 H         -2.898798   2.138424   0.709719 H        1 UNL1     0.0741
     69 H         -1.401106   0.432558   2.078415 H        1 UNL1     0.0359
     70 H         0.593629   0.967035   2.935665 H        1 UNL1     0.0600
     71 H         1.751988   -0.121672   1.459984 H        1 UNL1     0.0348
     72 H         3.043823   1.942871   1.430511 H        1 UNL1     0.0602
     73 H         0.093949   5.38295   -0.759339 H        1 UNL1     0.0628
     74 H         0.624013   5.689635   2.254894 H        1 UNL1     0.1022
     75 H         11.300595   4.002365   -2.328513 H        1 UNL1     0.0279
     76 H         10.476908   3.851539   -3.82921 H        1 UNL1     0.0279
     77 H         11.308475   5.384064   -3.344277 H        1 UNL1     0.0279
     78 H         8.738852   5.661753   -4.686078 H        1 UNL1     0.1553
     79 H         7.643058   4.051224   -4.32323 H        1 UNL1     0.1484
     80 H         4.029689   2.931468   -4.682671 H        1 UNL1     0.0317
     81 H         4.589407   4.516044   -5.198188 H        1 UNL1     0.0317
     82 H         6.723682   3.538553   -6.083107 H        1 UNL1     0.0428
     83 H         5.30045   2.816447   -6.800516 H        1 UNL1     0.0428
     84 H         7.185404   0.618025   -3.683301 H        1 UNL1     0.0428
     85 H         7.929506   2.114307   -4.126668 H        1 UNL1     0.0428
     86 H         6.47493   2.131749   -2.099661 H        1 UNL1     0.0317
     87 H         5.088858   1.655897   -2.968409 H        1 UNL1     0.0317
     88 H         7.666184   1.397425   -6.891577 H        1 UNL1     0.0429
     89 H         7.435347   -0.072461   -5.941638 H        1 UNL1     0.0429
     90 H         5.876941   1.024264   -8.26788 H        1 UNL1     0.0308
     91 H         5.519098   -1.378624   -8.757008 H        1 UNL1     0.0233
     92 H         7.233508   -1.116007   -8.347954 H        1 UNL1     0.0233
     93 H         6.151731   -1.851755   -7.184753 H        1 UNL1     0.0233
     94 H         3.747912   0.014787   -7.565784 H        1 UNL1     0.0233
     95 H         4.422694   -0.267022   -5.953463 H        1 UNL1     0.0233
     96 H         4.209298   1.395433   -6.549027 H        1 UNL1     0.0233
     97 H         2.503558   11.032144   -1.43809 H        1 UNL1     0.0280
     98 H         3.629445   11.290829   -0.133234 H        1 UNL1     0.0280
     99 H         4.043337   11.8409   -1.784248 H        1 UNL1     0.0280
     100 H         6.916466   10.573979   -2.77942 H        1 UNL1     0.2922
     101 H         4.615068   2.801876   2.864384 H        1 UNL1     0.0236
     102 H         6.259771   2.18554   2.438777 H        1 UNL1     0.0236
     103 H         4.890419   1.12132   2.527132 H        1 UNL1     0.0236
     104 H         3.197505   -0.574934   0.71813 H        1 UNL1     0.2098
     105 H         0.67014   1.262894   -0.983259 H        1 UNL1     0.0234
     106 H         1.407852   -0.359586   -0.863107 H        1 UNL1     0.0234
     107 H         0.0   -0.0   0.0 H        1 UNL1     0.0234
     108 H         1.817449   2.939402   2.152283 H        1 UNL1     0.2098
     109 H         -0.30017   3.833972   -2.168823 H        1 UNL1     0.0234
     110 H         0.755019   2.992649   -0.989182 H        1 UNL1     0.0234
     111 H         -0.300498   2.089204   -2.018024 H        1 UNL1     0.0234
     112 H         -2.682271   -2.268254   1.130794 H        1 UNL1     0.0342
     113 H         -2.905111   -0.634506   1.851523 H        1 UNL1     0.0342
     114 H         -3.966469   -1.191006   0.554681 H        1 UNL1     0.0342
     115 H         -3.152612   1.834684   2.884111 H        1 UNL1     0.0234
     116 H         -1.78744   1.814374   4.005129 H        1 UNL1     0.0234
     117 H         -2.146006   3.203821   2.958938 H        1 UNL1     0.0234
     118 H         -0.062537   7.240415   -1.184716 H        1 UNL1     0.0309
     119 H         1.123408   8.114721   -2.203139 H        1 UNL1     0.0309
     120 H         1.04884   6.366656   -2.173755 H        1 UNL1     0.0309
     121 H         -0.559178   4.584173   3.618759 H        1 UNL1     0.0524
     122 H         0.368543   5.146497   2.222342 H        1 UNL1     0.0524
     123 H         -1.031863   6.091176   2.788193 H        1 UNL1     0.0524
@<TRIPOS>BOND
     1     1     2    1
     2     1    42    1
     3     2     3    2
     4     3     4    1
     5     4     5    2
     6     5     7    1
     7     6    75    1
     8     6    76    1
     9     6    77    1
    10     7     9   am
    11     9    10    1
    12    10    11    2
    13    10    43    1
    14    11    14    1
    15    11    15    1
    16    12    13   ar
    17    12    27   ar
    18    12    43    1
    19    13    14    1
    20    13    30   ar
    21    14    17    2
    22    15    16    1
    23    16    17    1
    24    16    18    1
    25    16    22    1
    26    18    19    1
    27    19    20    1
    28    20    21    1
    29    21    22    1
    30    23    24    1
    31    23    88    1
    32    23    89    1
    33    24    25    1
    34    24    26    1
    35    24    90    1
    36    25    91    1
    37    25    92    1
    38    25    93    1
    39    26    94    1
    40    26    95    1
    41    26    96    1
    42    27    28   ar
    43    28    29   ar
    44    29    30   ar
    45    29    31    1
    46    30    33    1
    47    31    32    1
    48    32    33    1
    49    32    35    1
    50    34    97    1
    51    34    98    1
    52    34    99    1
    53    35    61    1
    54    36    37    1
    55    36    60    1
    56    37    38    1
    57    38    39    1
    58    39    40    1
    59    40    41    1
    60    41    42    1
    61    45   100    1
    62    47   101    1
    63    47   102    1
    64    47   103    1
    65    48   104    1
    66    49   105    1
    67    49   106    1
    68    49   107    1
    69    50   108    1
    70    51    59    1
    71    52   109    1
    72    52   110    1
    73    52   111    1
    74    53    54    1
    75    54    55    2
    76    54    56    1
    77    56   112    1
    78    56   113    1
    79    56   114    1
    80    57   115    1
    81    57   116    1
    82    57   117    1
    83    58   118    1
    84    58   119    1
    85    58   120    1
    86    59   121    1
    87    59   122    1
    88    59   123    1
    89    60    61    2
    90     1    47    1
    91     1    62    1
    92     2    63    1
    93     3    64    1
    94     4    65    1
    95     5     6    1
    96     7     8    2
    97     9    78    1
    98    15    79    1
    99    18    80    1
   100    18    81    1
   101    19    82    1
   102    19    83    1
   103    20    23    1
   104    21    84    1
   105    21    85    1
   106    22    86    1
   107    22    87    1
   108    27    45    1
   109    28    34    1
   110    32    58    1
   111    33    46    2
   112    36    51    1
   113    36    66    1
   114    37    52    1
   115    37    67    1
   116    38    53    1
   117    38    68    1
   118    42    48    1
   119    42    72    1
   120    43    44    2
   121    60    73    1
   122    61    74    1
   123    39    69    1
   124    39    57    1
   125    40    70    1
   126    40    50    1
   127    41    71    1
   128    41    49    1
