@<TRIPOS>MOLECULE
*****
 123 128 0 0 0
SMALL
GASTEIGER

@<TRIPOS>ATOM
     1 C         4.983066   0.998667   2.045354 C.3        1 UNL1     0.0009
     2 C         6.740885   1.44083   1.655993 C.2        1 UNL1     -0.0787
     3 C         8.124799   1.052651   1.48237 C.2        1 UNL1     -0.0649
     4 C         9.414265   2.009136   0.944995 C.2        1 UNL1     -0.0542
     5 C         10.715781   1.995332   0.385582 C.2        1 UNL1     0.0115
     6 C         11.920592   1.081818   0.028866 C.3        1 UNL1     -0.0348
     7 C         11.278318   3.330357   -0.305973 C.2        1 UNL1     0.2441
     8 O         12.079255   4.076161   0.240655 O.2        1 UNL1     -0.2702
     9 N         10.992937   3.448417   -1.677385 N.am        1 UNL1     -0.2772
     10 C         9.774856   4.060782   -1.863421 C.2        1 UNL1     0.1049
     11 C         8.712234   3.281384   -1.77627 C.2        1 UNL1     0.0801
     12 C         8.424524   6.045531   -1.160066 C.ar        1 UNL1     0.0753
     13 C         7.363338   5.126381   -0.881395 C.ar        1 UNL1     0.0305
     14 C         7.429779   3.72964   -1.305364 C.2        1 UNL1     0.0924
     15 N         8.62489   1.9406   -1.741678 N.pl3        1 UNL1     -0.3170
     16 C         7.231794   1.588898   -1.818116 C.3        1 UNL1     0.1275
     17 N         6.509985   2.772599   -1.221822 N.2        1 UNL1     -0.2557
     18 C         6.852626   1.562085   -3.295687 C.3        1 UNL1     0.0016
     19 C         7.783167   0.60178   -4.019216 C.3        1 UNL1     0.0026
     20 N         7.650242   -0.718994   -3.420119 N.3        1 UNL1     -0.3018
     21 C         7.934819   -0.782251   -1.985064 C.3        1 UNL1     0.0026
     22 C         6.985748   0.1865   -1.277477 C.3        1 UNL1     0.0016
     23 C         8.260778   -1.763982   -4.217546 C.3        1 UNL1     0.0012
     24 C         7.452485   -2.002617   -5.502642 C.3        1 UNL1     -0.0339
     25 C         7.483343   -3.482168   -5.919816 C.3        1 UNL1     -0.0615
     26 C         6.029823   -1.501863   -5.323591 C.3        1 UNL1     -0.0615
     27 C         8.303024   7.400443   -0.860785 C.ar        1 UNL1     0.1347
     28 C         7.157879   7.957779   -0.320351 C.ar        1 UNL1     0.0342
     29 C         6.144749   7.026137   -0.009265 C.ar        1 UNL1     0.1435
     30 C         6.266395   5.660704   -0.270059 C.ar        1 UNL1     0.0774
     31 O         4.927807   7.425538   0.420315 O.3        1 UNL1     -0.4436
     32 C         4.068991   6.302254   0.172244 C.3        1 UNL1     0.3143
     33 C         4.991332   5.100822   0.126819 C.2        1 UNL1     0.2504
     34 C         6.861526   9.427248   -0.206616 C.3        1 UNL1     -0.0327
     35 O         3.232619   6.142782   1.324765 O.2        1 UNL1     -0.4528
     36 C         -0.019994   4.656193   0.052506 C.3        1 UNL1     0.0854
     37 C         -0.257116   3.322748   -0.755715 C.3        1 UNL1     0.0236
     38 C         -1.304563   2.306618   -0.090824 C.3        1 UNL1     0.1131
     39 C         -1.144865   1.897211   1.428766 C.3        1 UNL1     0.0200
     40 C         0.357624   1.524052   2.049826 C.3        1 UNL1     0.0661
     41 C         1.474841   0.445179   1.367574 C.3        1 UNL1     0.0091
     42 C         3.309178   0.46241   1.385287 C.3        1 UNL1     0.0661
     43 C         9.624194   5.523535   -1.860473 C.2        1 UNL1     0.2131
     44 O         10.394369   6.225444   -2.490467 O.2        1 UNL1     -0.2851
     45 O         9.399551   8.219578   -1.121713 O.3        1 UNL1     -0.5056
     46 O         4.736514   3.945136   0.38238 O.2        1 UNL1     -0.2836
     47 C         4.812496   0.757818   3.569453 C.3        1 UNL1     -0.0566
     48 O         3.432444   -0.965824   1.764851 O.3        1 UNL1     -0.3909
     49 C         1.050182   0.134867   -0.050476 C.3        1 UNL1     -0.0577
     50 O         1.021055   2.6911   2.492072 O.3        1 UNL1     -0.3910
     51 O         -0.613713   4.716281   1.329737 O.3        1 UNL1     -0.3753
     52 C         1.049246   2.828171   -1.458395 C.3        1 UNL1     -0.0564
     53 O         -1.775082   1.23163   -1.026419 O.3        1 UNL1     -0.4608
     54 C         -3.068406   0.796041   -1.150946 C.2        1 UNL1     0.3042
     55 O         -3.555817   -0.237096   -0.693894 O.2        1 UNL1     -0.2512
     56 C         -3.957263   1.754723   -1.89093 C.3        1 UNL1     0.0332
     57 C         -2.088984   2.859631   2.289326 C.3        1 UNL1     -0.0567
     58 C         3.461421   6.51818   -1.233374 C.3        1 UNL1     0.0210
     59 C         -1.738187   5.589125   1.427549 C.3        1 UNL1     0.0372
     60 C         1.407137   5.042276   0.223963 C.2        1 UNL1     -0.0208
     61 C         2.061204   5.478537   1.301282 C.2        1 UNL1     0.0882
     62 H         4.69972   2.041723   1.85972 H        1 UNL1     0.0365
     63 H         6.659774   2.52478   1.551381 H        1 UNL1     0.0576
     64 H         8.437003   0.007248   1.534991 H        1 UNL1     0.0615
     65 H         9.024975   3.02909   1.005253 H        1 UNL1     0.0622
     66 H         -0.471605   5.440775   -0.570812 H        1 UNL1     0.0645
     67 H         -0.808138   3.648703   -1.654985 H        1 UNL1     0.0362
     68 H         -2.213409   2.926146   -0.132126 H        1 UNL1     0.0741
     69 H         -1.706592   0.989683   1.605585 H        1 UNL1     0.0359
     70 H         0.056078   1.007561   2.981152 H        1 UNL1     0.0600
     71 H         1.186028   -0.488025   1.889756 H        1 UNL1     0.0348
     72 H         2.991791   1.114267   2.212127 H        1 UNL1     0.0602
     73 H         1.883675   5.048473   -0.724784 H        1 UNL1     0.0628
     74 H         1.664758   5.45032   2.316798 H        1 UNL1     0.1022
     75 H         12.169178   0.408853   0.884645 H        1 UNL1     0.0279
     76 H         11.770978   0.37801   -0.786817 H        1 UNL1     0.0279
     77 H         12.859897   1.642345   -0.086096 H        1 UNL1     0.0279
     78 H         10.937368   2.522337   -2.096151 H        1 UNL1     0.1553
     79 H         9.358121   1.326657   -2.045618 H        1 UNL1     0.1484
     80 H         5.804864   1.252247   -3.390358 H        1 UNL1     0.0317
     81 H         6.924781   2.5622   -3.736384 H        1 UNL1     0.0317
     82 H         8.827262   0.9466   -3.989582 H        1 UNL1     0.0428
     83 H         7.496464   0.599321   -5.071284 H        1 UNL1     0.0428
     84 H         7.750614   -1.76696   -1.54435 H        1 UNL1     0.0428
     85 H         8.994489   -0.587464   -1.769487 H        1 UNL1     0.0428
     86 H         7.129252   0.016643   -0.226504 H        1 UNL1     0.0317
     87 H         5.945591   -0.119045   -1.444242 H        1 UNL1     0.0317
     88 H         9.270646   -1.43531   -4.495818 H        1 UNL1     0.0429
     89 H         8.3718   -2.691715   -3.64156 H        1 UNL1     0.0429
     90 H         7.881543   -1.402156   -6.313548 H        1 UNL1     0.0308
     91 H         7.294556   -4.140098   -5.066241 H        1 UNL1     0.0233
     92 H         6.740774   -3.680139   -6.696351 H        1 UNL1     0.0233
     93 H         8.452129   -3.777264   -6.340777 H        1 UNL1     0.0233
     94 H         5.363053   -1.994646   -6.039426 H        1 UNL1     0.0233
     95 H         5.675209   -1.736354   -4.316007 H        1 UNL1     0.0233
     96 H         5.96474   -0.421191   -5.478121 H        1 UNL1     0.0233
     97 H         6.721682   9.736048   0.825042 H        1 UNL1     0.0280
     98 H         7.680031   10.045925   -0.597186 H        1 UNL1     0.0280
     99 H         5.940976   9.662413   -0.765526 H        1 UNL1     0.0280
     100 H         9.196993   9.004394   -1.599893 H        1 UNL1     0.2922
     101 H         3.859654   1.16889   3.90227 H        1 UNL1     0.0236
     102 H         5.648207   1.133413   4.158945 H        1 UNL1     0.0236
     103 H         4.755276   -0.315735   3.815225 H        1 UNL1     0.0236
     104 H         3.607112   -1.001655   2.725672 H        1 UNL1     0.2098
     105 H         1.249501   0.931008   -0.763388 H        1 UNL1     0.0234
     106 H         1.413301   -0.817535   -0.436485 H        1 UNL1     0.0234
     107 H         0.0   -0.0   0.0 H        1 UNL1     0.0234
     108 H         1.969227   2.581826   2.285196 H        1 UNL1     0.2098
     109 H         1.435185   3.560049   -2.181664 H        1 UNL1     0.0234
     110 H         1.841801   2.557772   -0.752361 H        1 UNL1     0.0234
     111 H         0.877011   1.906977   -2.030832 H        1 UNL1     0.0234
     112 H         -4.876513   1.247552   -2.199317 H        1 UNL1     0.0342
     113 H         -4.179979   2.643827   -1.302938 H        1 UNL1     0.0342
     114 H         -3.430887   2.079441   -2.799033 H        1 UNL1     0.0342
     115 H         -2.540954   3.647614   1.67127 H        1 UNL1     0.0234
     116 H         -2.899781   2.341075   2.804842 H        1 UNL1     0.0234
     117 H         -1.541257   3.461414   3.034842 H        1 UNL1     0.0234
     118 H         2.383501   6.752693   -1.187564 H        1 UNL1     0.0309
     119 H         3.973273   7.296893   -1.80767 H        1 UNL1     0.0309
     120 H         3.497088   5.613565   -1.850226 H        1 UNL1     0.0309
     121 H         -1.816523   5.910817   2.465689 H        1 UNL1     0.0524
     122 H         -1.620903   6.493589   0.807688 H        1 UNL1     0.0524
     123 H         -2.643938   5.070391   1.126512 H        1 UNL1     0.0524
@<TRIPOS>BOND
     1     1     2    1
     2     1    42    1
     3     2     3    2
     4     3     4    1
     5     4     5    2
     6     5     7    1
     7     6    75    1
     8     6    76    1
     9     6    77    1
    10     7     9   am
    11     9    10    1
    12    10    11    2
    13    10    43    1
    14    11    14    1
    15    11    15    1
    16    12    13   ar
    17    12    27   ar
    18    12    43    1
    19    13    14    1
    20    13    30   ar
    21    14    17    2
    22    15    16    1
    23    16    17    1
    24    16    18    1
    25    16    22    1
    26    18    19    1
    27    19    20    1
    28    20    21    1
    29    21    22    1
    30    23    24    1
    31    23    88    1
    32    23    89    1
    33    24    25    1
    34    24    26    1
    35    24    90    1
    36    25    91    1
    37    25    92    1
    38    25    93    1
    39    26    94    1
    40    26    95    1
    41    26    96    1
    42    27    28   ar
    43    28    29   ar
    44    29    30   ar
    45    29    31    1
    46    30    33    1
    47    31    32    1
    48    32    33    1
    49    32    35    1
    50    34    97    1
    51    34    98    1
    52    34    99    1
    53    35    61    1
    54    36    37    1
    55    36    60    1
    56    37    38    1
    57    38    39    1
    58    39    40    1
    59    40    41    1
    60    41    42    1
    61    45   100    1
    62    47   101    1
    63    47   102    1
    64    47   103    1
    65    48   104    1
    66    49   105    1
    67    49   106    1
    68    49   107    1
    69    50   108    1
    70    51    59    1
    71    52   109    1
    72    52   110    1
    73    52   111    1
    74    53    54    1
    75    54    55    2
    76    54    56    1
    77    56   112    1
    78    56   113    1
    79    56   114    1
    80    57   115    1
    81    57   116    1
    82    57   117    1
    83    58   118    1
    84    58   119    1
    85    58   120    1
    86    59   121    1
    87    59   122    1
    88    59   123    1
    89    60    61    2
    90     1    47    1
    91     1    62    1
    92     2    63    1
    93     3    64    1
    94     4    65    1
    95     5     6    1
    96     7     8    2
    97     9    78    1
    98    15    79    1
    99    18    80    1
   100    18    81    1
   101    19    82    1
   102    19    83    1
   103    20    23    1
   104    21    84    1
   105    21    85    1
   106    22    86    1
   107    22    87    1
   108    27    45    1
   109    28    34    1
   110    32    58    1
   111    33    46    2
   112    36    51    1
   113    36    66    1
   114    37    52    1
   115    37    67    1
   116    38    53    1
   117    38    68    1
   118    42    48    1
   119    42    72    1
   120    43    44    2
   121    60    73    1
   122    61    74    1
   123    39    69    1
   124    39    57    1
   125    40    70    1
   126    40    50    1
   127    41    71    1
   128    41    49    1
