@<TRIPOS>MOLECULE
*****
 123 128 0 0 0
SMALL
GASTEIGER

@<TRIPOS>ATOM
     1 C         -2.028068   3.384545   -1.232159 C.3        1 UNL1     0.0009
     2 C         -3.476107   3.497749   -2.384289 C.2        1 UNL1     -0.0787
     3 C         -4.008785   3.681624   -3.717889 C.2        1 UNL1     -0.0649
     4 C         -5.619669   3.550793   -4.222162 C.2        1 UNL1     -0.0542
     5 C         -6.476197   3.358169   -5.334068 C.2        1 UNL1     0.0115
     6 C         -6.526374   3.294354   -6.885433 C.3        1 UNL1     -0.0348
     7 C         -7.993644   2.902377   -5.076003 C.2        1 UNL1     0.2441
     8 O         -8.939781   3.675644   -5.134375 O.2        1 UNL1     -0.2702
     9 N         -8.192163   1.511268   -5.036547 N.am        1 UNL1     -0.2772
     10 C         -8.003975   1.035383   -3.759268 C.2        1 UNL1     0.1049
     11 C         -6.7538   0.801129   -3.403727 C.2        1 UNL1     0.0801
     12 C         -8.646002   1.442537   -1.376128 C.ar        1 UNL1     0.0753
     13 C         -7.248489   1.38676   -1.072063 C.ar        1 UNL1     0.0305
     14 C         -6.268721   0.933217   -2.056646 C.2        1 UNL1     0.0924
     15 N         -5.638064   0.750671   -4.151467 N.pl3        1 UNL1     -0.3170
     16 C         -4.565622   0.290198   -3.309989 C.3        1 UNL1     0.1275
     17 N         -4.962116   0.725511   -1.920379 N.2        1 UNL1     -0.2557
     18 C         -4.61628   -1.234638   -3.306696 C.3        1 UNL1     0.0016
     19 C         -4.542619   -1.726787   -4.743343 C.3        1 UNL1     0.0026
     20 N         -3.304505   -1.244959   -5.339954 N.3        1 UNL1     -0.3018
     21 C         -3.136176   0.209686   -5.333518 C.3        1 UNL1     0.0026
     22 C         -3.208883   0.681931   -3.880386 C.3        1 UNL1     0.0016
     23 C         -2.992566   -1.897302   -6.596053 C.3        1 UNL1     0.0012
     24 C         -3.897499   -3.121459   -6.806516 C.3        1 UNL1     -0.0339
     25 C         -3.995946   -3.974003   -5.530768 C.3        1 UNL1     -0.0615
     26 C         -5.267554   -2.679259   -7.290445 C.3        1 UNL1     -0.0615
     27 C         -9.585412   1.759475   -0.397773 C.ar        1 UNL1     0.1347
     28 C         -9.252499   1.999998   0.923351 C.ar        1 UNL1     0.0342
     29 C         -7.866657   1.987666   1.188783 C.ar        1 UNL1     0.1435
     30 C         -6.911417   1.707347   0.210949 C.ar        1 UNL1     0.0774
     31 O         -7.38929   2.095207   2.447974 O.3        1 UNL1     -0.4436
     32 C         -6.052544   1.576951   2.374543 C.3        1 UNL1     0.3143
     33 C         -5.649686   1.724636   0.921234 C.2        1 UNL1     0.2504
     34 C         -10.217349   2.096891   2.072166 C.3        1 UNL1     -0.0327
     35 O         -5.212404   2.456694   3.131821 O.2        1 UNL1     -0.4528
     36 C         -2.399682   0.298415   4.487741 C.3        1 UNL1     0.0854
     37 C         -1.36937   -0.603084   3.704619 C.3        1 UNL1     0.0236
     38 C         0.173088   -0.287714   4.009757 C.3        1 UNL1     0.1131
     39 C         0.70392   1.199445   3.915723 C.3        1 UNL1     0.0200
     40 C         0.247644   2.180721   2.646334 C.3        1 UNL1     0.0661
     41 C         0.314498   1.77268   1.001146 C.3        1 UNL1     0.0091
     42 C         -0.762164   2.27903   -0.39521 C.3        1 UNL1     0.0661
     43 C         -9.070152   1.064104   -2.746947 C.2        1 UNL1     0.2131
     44 O         -10.196514   0.694312   -3.024975 O.2        1 UNL1     -0.2851
     45 O         -10.921036   1.837235   -0.787003 O.3        1 UNL1     -0.5056
     46 O         -4.538937   1.850685   0.45626 O.2        1 UNL1     -0.2836
     47 C         -1.437332   4.795698   -0.968223 C.3        1 UNL1     -0.0566
     48 O         0.368367   2.612864   -1.294972 O.3        1 UNL1     -0.3909
     49 C         0.525794   0.280245   0.876712 C.3        1 UNL1     -0.0577
     50 O         -0.971624   2.835874   2.93249 O.3        1 UNL1     -0.3910
     51 O         -1.849233   1.372763   5.215899 O.3        1 UNL1     -0.3753
     52 C         -1.877644   -0.954055   2.268155 C.3        1 UNL1     -0.0564
     53 O         1.109945   -1.362349   3.540943 O.3        1 UNL1     -0.4608
     54 C         0.755065   -2.458451   2.798953 C.2        1 UNL1     0.3042
     55 O         0.255688   -2.469356   1.674523 O.2        1 UNL1     -0.2512
     56 C         1.087303   -3.765663   3.460413 C.3        1 UNL1     0.0332
     57 C         0.663591   1.820011   5.389306 C.3        1 UNL1     -0.0567
     58 C         -6.147728   0.071518   2.715339 C.3        1 UNL1     0.0210
     59 C         -0.45809   1.248695   5.50778 C.3        1 UNL1     0.0372
     60 C         -3.500251   0.860992   3.658634 C.2        1 UNL1     -0.0208
     61 C         -4.011732   2.092141   3.621182 C.2        1 UNL1     0.0882
     62 H         -2.723188   3.17742   -0.409591 H        1 UNL1     0.0365
     63 H         -4.305061   3.424338   -1.677241 H        1 UNL1     0.0576
     64 H         -3.354904   3.768262   -4.588546 H        1 UNL1     0.0615
     65 H         -6.186316   3.551162   -3.287071 H        1 UNL1     0.0622
     66 H         -2.879565   -0.386601   5.200841 H        1 UNL1     0.0645
     67 H         -1.484103   -1.600965   4.162471 H        1 UNL1     0.0362
     68 H         0.204449   -0.541567   5.080317 H        1 UNL1     0.0741
     69 H         1.781705   1.179142   3.824207 H        1 UNL1     0.0359
     70 H         1.014805   2.973815   2.733094 H        1 UNL1     0.0600
     71 H         1.32218   2.156425   0.747621 H        1 UNL1     0.0348
     72 H         -0.928487   3.020023   0.400139 H        1 UNL1     0.0602
     73 H         -3.969899   0.074702   3.12158 H        1 UNL1     0.0628
     74 H         -3.558069   2.963055   4.095458 H        1 UNL1     0.1022
     75 H         -7.583749   3.251507   -7.242023 H        1 UNL1     0.0279
     76 H         -6.133843   4.156828   -7.419405 H        1 UNL1     0.0279
     77 H         -6.124302   2.352034   -7.285522 H        1 UNL1     0.0279
     78 H         -7.511855   1.05148   -5.638089 H        1 UNL1     0.1553
     79 H         -5.640017   0.625598   -5.1471 H        1 UNL1     0.1484
     80 H         -3.781275   -1.618809   -2.70841 H        1 UNL1     0.0317
     81 H         -5.534672   -1.594608   -2.830641 H        1 UNL1     0.0317
     82 H         -5.415964   -1.404634   -5.329345 H        1 UNL1     0.0428
     83 H         -4.58209   -2.816212   -4.717951 H        1 UNL1     0.0428
     84 H         -2.164789   0.540526   -5.713995 H        1 UNL1     0.0428
     85 H         -3.863394   0.708248   -5.989191 H        1 UNL1     0.0428
     86 H         -2.95038   1.724391   -3.901438 H        1 UNL1     0.0317
     87 H         -2.395948   0.230565   -3.298577 H        1 UNL1     0.0317
     88 H         -3.17814   -1.181814   -7.4078 H        1 UNL1     0.0429
     89 H         -1.931996   -2.175181   -6.648471 H        1 UNL1     0.0429
     90 H         -3.481907   -3.741518   -7.60965 H        1 UNL1     0.0308
     91 H         -3.293805   -3.628273   -4.766196 H        1 UNL1     0.0233
     92 H         -5.010005   -3.946579   -5.125129 H        1 UNL1     0.0233
     93 H         -3.769276   -5.03091   -5.716248 H        1 UNL1     0.0233
     94 H         -5.201677   -1.691895   -7.760135 H        1 UNL1     0.0233
     95 H         -5.645218   -3.383293   -8.037216 H        1 UNL1     0.0233
     96 H         -5.983017   -2.622374   -6.465311 H        1 UNL1     0.0233
     97 H         -11.201561   1.719905   1.810558 H        1 UNL1     0.0280
     98 H         -9.89007   1.50706   2.938332 H        1 UNL1     0.0280
     99 H         -10.321217   3.15053   2.379005 H        1 UNL1     0.0280
     100 H         -11.073995   2.349765   -1.561302 H        1 UNL1     0.2922
     101 H         -2.246115   5.511982   -0.825174 H        1 UNL1     0.0236
     102 H         -0.736929   5.118022   -1.73798 H        1 UNL1     0.0236
     103 H         -0.860186   4.834064   -0.029275 H        1 UNL1     0.0236
     104 H         0.110905   3.40102   -1.812169 H        1 UNL1     0.2098
     105 H         1.563828   -0.017491   0.751614 H        1 UNL1     0.0234
     106 H         0.054307   -0.31328   1.659882 H        1 UNL1     0.0234
     107 H         0.0   -0.0   0.0 H        1 UNL1     0.0234
     108 H         -1.229263   3.332007   2.131714 H        1 UNL1     0.2098
     109 H         -1.883041   -0.07893   1.603445 H        1 UNL1     0.0234
     110 H         -1.313602   -1.767241   1.798764 H        1 UNL1     0.0234
     111 H         -2.912213   -1.321988   2.283568 H        1 UNL1     0.0234
     112 H         1.516791   -3.583351   4.450185 H        1 UNL1     0.0342
     113 H         0.221903   -4.423488   3.52516 H        1 UNL1     0.0342
     114 H         1.847515   -4.274614   2.851964 H        1 UNL1     0.0342
     115 H         -0.152793   1.394877   5.989278 H        1 UNL1     0.0234
     116 H         1.58918   1.686396   5.952761 H        1 UNL1     0.0234
     117 H         0.4054   2.892825   5.407932 H        1 UNL1     0.0234
     118 H         -6.203363   -0.556103   1.808695 H        1 UNL1     0.0309
     119 H         -5.323283   -0.279635   3.343976 H        1 UNL1     0.0309
     120 H         -7.068023   -0.180239   3.253651 H        1 UNL1     0.0309
     121 H         0.07838   1.241148   4.559361 H        1 UNL1     0.0524
     122 H         -0.077014   2.098688   6.097975 H        1 UNL1     0.0524
     123 H         -0.269028   0.328145   6.0527 H        1 UNL1     0.0524
@<TRIPOS>BOND
     1     1     2    1
     2     1    42    1
     3     2     3    2
     4     3     4    1
     5     4     5    2
     6     5     7    1
     7     6    75    1
     8     6    76    1
     9     6    77    1
    10     7     9   am
    11     9    10    1
    12    10    11    2
    13    10    43    1
    14    11    14    1
    15    11    15    1
    16    12    13   ar
    17    12    27   ar
    18    12    43    1
    19    13    14    1
    20    13    30   ar
    21    14    17    2
    22    15    16    1
    23    16    17    1
    24    16    18    1
    25    16    22    1
    26    18    19    1
    27    19    20    1
    28    20    21    1
    29    21    22    1
    30    23    24    1
    31    23    88    1
    32    23    89    1
    33    24    25    1
    34    24    26    1
    35    24    90    1
    36    25    91    1
    37    25    92    1
    38    25    93    1
    39    26    94    1
    40    26    95    1
    41    26    96    1
    42    27    28   ar
    43    28    29   ar
    44    29    30   ar
    45    29    31    1
    46    30    33    1
    47    31    32    1
    48    32    33    1
    49    32    35    1
    50    34    97    1
    51    34    98    1
    52    34    99    1
    53    35    61    1
    54    36    37    1
    55    36    60    1
    56    37    38    1
    57    38    39    1
    58    39    40    1
    59    40    41    1
    60    41    42    1
    61    45   100    1
    62    47   101    1
    63    47   102    1
    64    47   103    1
    65    48   104    1
    66    49   105    1
    67    49   106    1
    68    49   107    1
    69    50   108    1
    70    51    59    1
    71    52   109    1
    72    52   110    1
    73    52   111    1
    74    53    54    1
    75    54    55    2
    76    54    56    1
    77    56   112    1
    78    56   113    1
    79    56   114    1
    80    57   115    1
    81    57   116    1
    82    57   117    1
    83    58   118    1
    84    58   119    1
    85    58   120    1
    86    59   121    1
    87    59   122    1
    88    59   123    1
    89    60    61    2
    90     1    47    1
    91     1    62    1
    92     2    63    1
    93     3    64    1
    94     4    65    1
    95     5     6    1
    96     7     8    2
    97     9    78    1
    98    15    79    1
    99    18    80    1
   100    18    81    1
   101    19    82    1
   102    19    83    1
   103    20    23    1
   104    21    84    1
   105    21    85    1
   106    22    86    1
   107    22    87    1
   108    27    45    1
   109    28    34    1
   110    32    58    1
   111    33    46    2
   112    36    51    1
   113    36    66    1
   114    37    52    1
   115    37    67    1
   116    38    53    1
   117    38    68    1
   118    42    48    1
   119    42    72    1
   120    43    44    2
   121    60    73    1
   122    61    74    1
   123    39    69    1
   124    39    57    1
   125    40    70    1
   126    40    50    1
   127    41    71    1
   128    41    49    1
