@<TRIPOS>MOLECULE
*****
 123 128 0 0 0
SMALL
GASTEIGER

@<TRIPOS>ATOM
     1 C         5.176314   1.728106   0.461657 C.3        1 UNL1     0.0009
     2 C         6.615478   2.518301   -0.399411 C.2        1 UNL1     -0.0787
     3 C         7.894265   2.406604   -1.068943 C.2        1 UNL1     -0.0649
     4 C         8.7775   3.630323   -1.836254 C.2        1 UNL1     -0.0542
     5 C         9.796161   3.909343   -2.780476 C.2        1 UNL1     0.0115
     6 C         10.916926   3.27008   -3.645665 C.3        1 UNL1     -0.0348
     7 C         9.899552   5.387632   -3.397698 C.2        1 UNL1     0.2441
     8 O         10.73042   6.206181   -3.028697 O.2        1 UNL1     -0.2702
     9 N         9.1466   5.591597   -4.567148 N.am        1 UNL1     -0.2772
     10 C         7.867708   5.989322   -4.251597 C.2        1 UNL1     0.1049
     11 C         7.016297   5.025844   -3.949883 C.2        1 UNL1     0.0801
     12 C         6.585461   7.61473   -2.847595 C.ar        1 UNL1     0.0753
     13 C         5.820252   6.495245   -2.389538 C.ar        1 UNL1     0.0305
     14 C         5.925879   5.184289   -3.026162 C.2        1 UNL1     0.0924
     15 N         7.129188   3.694971   -4.100081 N.pl3        1 UNL1     -0.3170
     16 C         5.85636   3.106806   -3.777243 C.3        1 UNL1     0.1275
     17 N         5.230059   4.073242   -2.801808 N.2        1 UNL1     -0.2557
     18 C         4.999434   3.162942   -5.038285 C.3        1 UNL1     0.0016
     19 C         5.74555   2.465777   -6.164723 C.3        1 UNL1     0.0026
     20 N         6.007565   1.08857   -5.770164 N.3        1 UNL1     -0.3018
     21 C         6.774218   0.931564   -4.53244 C.3        1 UNL1     0.0026
     22 C         6.004256   1.635268   -3.413578 C.3        1 UNL1     0.0016
     23 C         6.442451   0.258244   -6.875641 C.3        1 UNL1     0.0012
     24 C         5.281816   0.009909   -7.851864 C.3        1 UNL1     -0.0339
     25 C         5.378917   0.923238   -9.084933 C.3        1 UNL1     -0.0615
     26 C         5.236358   -1.456539   -8.244604 C.3        1 UNL1     -0.0615
     27 C         6.391468   8.887549   -2.316164 C.ar        1 UNL1     0.1347
     28 C         5.437723   9.170425   -1.354706 C.ar        1 UNL1     0.0342
     29 C         4.73001   8.044099   -0.88386 C.ar        1 UNL1     0.1435
     30 C         4.938808   6.757084   -1.381068 C.ar        1 UNL1     0.0774
     31 O         3.692881   8.170824   -0.027525 O.3        1 UNL1     -0.4436
     32 C         2.962222   6.942061   -0.15849 C.3        1 UNL1     0.3143
     33 C         3.966745   5.938276   -0.687228 C.2        1 UNL1     0.2504
     34 C         5.001886   10.542633   -0.922052 C.3        1 UNL1     -0.0327
     35 O         2.603292   6.517078   1.162044 O.2        1 UNL1     -0.4528
     36 C         -0.654389   4.604638   0.790317 C.3        1 UNL1     0.0854
     37 C         -0.97158   3.339951   -0.097083 C.3        1 UNL1     0.0236
     38 C         -1.577989   2.088632   0.701798 C.3        1 UNL1     0.1131
     39 C         -0.851257   1.561806   2.004329 C.3        1 UNL1     0.0200
     40 C         0.809029   1.405068   2.040655 C.3        1 UNL1     0.0661
     41 C         1.758891   0.621465   0.87389 C.3        1 UNL1     0.0091
     42 C         3.466907   0.968249   0.301332 C.3        1 UNL1     0.0661
     43 C         7.530033   7.392626   -3.970409 C.2        1 UNL1     0.2131
     44 O         7.933521   8.282868   -4.696635 O.2        1 UNL1     -0.2851
     45 O         7.209203   9.913781   -2.784775 O.3        1 UNL1     -0.5056
     46 O         3.974907   4.735604   -0.54806 O.2        1 UNL1     -0.2836
     47 C         5.574852   1.305974   1.901433 C.3        1 UNL1     -0.0566
     48 O         3.906025   -0.445318   0.391442 O.3        1 UNL1     -0.3909
     49 C         0.918687   0.385977   -0.361463 C.3        1 UNL1     -0.0577
     50 O         1.419009   2.621469   2.422774 O.3        1 UNL1     -0.3910
     51 O         -0.7748   4.425571   2.183467 O.3        1 UNL1     -0.3753
     52 C         0.067611   3.164195   -1.252133 C.3        1 UNL1     -0.0564
     53 O         -2.190957   1.047567   -0.188584 O.3        1 UNL1     -0.4608
     54 C         -2.402042   -0.263557   0.149539 C.2        1 UNL1     0.3042
     55 O         -1.764512   -1.244839   -0.230563 O.2        1 UNL1     -0.2512
     56 C         -3.514023   -0.457468   1.140806 C.3        1 UNL1     0.0332
     57 C         -1.563135   2.244586   3.263382 C.3        1 UNL1     -0.0567
     58 C         1.884866   7.186985   -1.240546 C.3        1 UNL1     0.0210
     59 C         -1.07721   5.611868   2.916347 C.3        1 UNL1     0.0372
     60 C         0.678077   5.222883   0.550591 C.2        1 UNL1     -0.0208
     61 C         1.5971   5.657868   1.413684 C.2        1 UNL1     0.0882
     62 H         4.707505   2.716135   0.543687 H        1 UNL1     0.0365
     63 H         6.35688   3.574629   -0.300576 H        1 UNL1     0.0576
     64 H         8.344448   1.435087   -1.284805 H        1 UNL1     0.0615
     65 H         8.297985   4.551474   -1.49416 H        1 UNL1     0.0622
     66 H         -1.394982   5.354109   0.477489 H        1 UNL1     0.0645
     67 H         -1.837161   3.651008   -0.707472 H        1 UNL1     0.0362
     68 H         -2.520758   2.534504   1.053803 H        1 UNL1     0.0741
     69 H         -1.18904   0.55442   2.208006 H        1 UNL1     0.0359
     70 H         0.919409   0.75017   2.926085 H        1 UNL1     0.0600
     71 H         1.796963   -0.396961   1.307845 H        1 UNL1     0.0348
     72 H         3.367908   1.464028   1.277917 H        1 UNL1     0.0602
     73 H         0.793611   5.412043   -0.487734 H        1 UNL1     0.0628
     74 H         1.581939   5.454833   2.485031 H        1 UNL1     0.1022
     75 H         10.902861   2.157917   -3.546023 H        1 UNL1     0.0279
     76 H         10.838626   3.409901   -4.721485 H        1 UNL1     0.0279
     77 H         11.925866   3.507941   -3.278018 H        1 UNL1     0.0279
     78 H         9.076721   4.718442   -5.0856 H        1 UNL1     0.1553
     79 H         7.789272   3.258069   -4.716798 H        1 UNL1     0.1484
     80 H         4.035493   2.680045   -4.8373 H        1 UNL1     0.0317
     81 H         4.779008   4.199313   -5.315771 H        1 UNL1     0.0317
     82 H         6.678958   2.988875   -6.419733 H        1 UNL1     0.0428
     83 H         5.117597   2.518993   -7.054607 H        1 UNL1     0.0428
     84 H         6.888452   -0.110003   -4.216369 H        1 UNL1     0.0428
     85 H         7.806445   1.291723   -4.64249 H        1 UNL1     0.0428
     86 H         6.522196   1.38771   -2.50559 H        1 UNL1     0.0317
     87 H         5.021996   1.16531   -3.281664 H        1 UNL1     0.0317
     88 H         7.240333   0.790809   -7.409544 H        1 UNL1     0.0429
     89 H         6.869771   -0.688016   -6.519602 H        1 UNL1     0.0429
     90 H         4.333099   0.212704   -7.340959 H        1 UNL1     0.0308
     91 H         6.331499   0.788134   -9.605928 H        1 UNL1     0.0233
     92 H         4.5591   0.723694   -9.778973 H        1 UNL1     0.0233
     93 H         5.306921   1.986075   -8.824111 H        1 UNL1     0.0233
     94 H         4.577403   -1.595953   -9.108421 H        1 UNL1     0.0233
     95 H         6.236323   -1.79953   -8.524582 H        1 UNL1     0.0233
     96 H         4.866822   -2.078098   -7.424192 H        1 UNL1     0.0233
     97 H         4.15615   10.505958   -0.241892 H        1 UNL1     0.0280
     98 H         5.795646   11.079098   -0.385949 H        1 UNL1     0.0280
     99 H         4.709151   11.132662   -1.805945 H        1 UNL1     0.0280
     100 H         6.749939   10.693871   -3.041988 H        1 UNL1     0.2922
     101 H         4.688697   0.986623   2.449521 H        1 UNL1     0.0236
     102 H         6.130675   2.075919   2.435501 H        1 UNL1     0.0236
     103 H         6.239091   0.425656   1.905995 H        1 UNL1     0.0236
     104 H         4.239647   -0.593322   1.297953 H        1 UNL1     0.2098
     105 H         0.700092   1.283996   -0.933816 H        1 UNL1     0.0234
     106 H         1.286955   -0.401044   -1.019418 H        1 UNL1     0.0234
     107 H         0.0   -0.0   0.0 H        1 UNL1     0.0234
     108 H         1.276277   3.258345   1.696286 H        1 UNL1     0.2098
     109 H         1.094531   3.058681   -0.875285 H        1 UNL1     0.0234
     110 H         -0.166327   2.326367   -1.917761 H        1 UNL1     0.0234
     111 H         0.083693   4.03702   -1.918365 H        1 UNL1     0.0234
     112 H         -3.615838   -1.519743   1.382784 H        1 UNL1     0.0342
     113 H         -3.367567   0.136214   2.04188 H        1 UNL1     0.0342
     114 H         -4.451856   -0.12716   0.673333 H        1 UNL1     0.0342
     115 H         -2.651811   2.097311   3.246514 H        1 UNL1     0.0234
     116 H         -1.198217   1.886246   4.227994 H        1 UNL1     0.0234
     117 H         -1.497082   3.346211   3.262163 H        1 UNL1     0.0234
     118 H         0.986764   7.678782   -0.827562 H        1 UNL1     0.0309
     119 H         2.253985   7.770364   -2.09003 H        1 UNL1     0.0309
     120 H         1.491665   6.254847   -1.660805 H        1 UNL1     0.0309
     121 H         -0.747334   5.457994   3.943411 H        1 UNL1     0.0524
     122 H         -0.542817   6.493329   2.524569 H        1 UNL1     0.0524
     123 H         -2.145524   5.807212   2.891062 H        1 UNL1     0.0524
@<TRIPOS>BOND
     1     1     2    1
     2     1    42    1
     3     2     3    2
     4     3     4    1
     5     4     5    2
     6     5     7    1
     7     6    75    1
     8     6    76    1
     9     6    77    1
    10     7     9   am
    11     9    10    1
    12    10    11    2
    13    10    43    1
    14    11    14    1
    15    11    15    1
    16    12    13   ar
    17    12    27   ar
    18    12    43    1
    19    13    14    1
    20    13    30   ar
    21    14    17    2
    22    15    16    1
    23    16    17    1
    24    16    18    1
    25    16    22    1
    26    18    19    1
    27    19    20    1
    28    20    21    1
    29    21    22    1
    30    23    24    1
    31    23    88    1
    32    23    89    1
    33    24    25    1
    34    24    26    1
    35    24    90    1
    36    25    91    1
    37    25    92    1
    38    25    93    1
    39    26    94    1
    40    26    95    1
    41    26    96    1
    42    27    28   ar
    43    28    29   ar
    44    29    30   ar
    45    29    31    1
    46    30    33    1
    47    31    32    1
    48    32    33    1
    49    32    35    1
    50    34    97    1
    51    34    98    1
    52    34    99    1
    53    35    61    1
    54    36    37    1
    55    36    60    1
    56    37    38    1
    57    38    39    1
    58    39    40    1
    59    40    41    1
    60    41    42    1
    61    45   100    1
    62    47   101    1
    63    47   102    1
    64    47   103    1
    65    48   104    1
    66    49   105    1
    67    49   106    1
    68    49   107    1
    69    50   108    1
    70    51    59    1
    71    52   109    1
    72    52   110    1
    73    52   111    1
    74    53    54    1
    75    54    55    2
    76    54    56    1
    77    56   112    1
    78    56   113    1
    79    56   114    1
    80    57   115    1
    81    57   116    1
    82    57   117    1
    83    58   118    1
    84    58   119    1
    85    58   120    1
    86    59   121    1
    87    59   122    1
    88    59   123    1
    89    60    61    2
    90     1    47    1
    91     1    62    1
    92     2    63    1
    93     3    64    1
    94     4    65    1
    95     5     6    1
    96     7     8    2
    97     9    78    1
    98    15    79    1
    99    18    80    1
   100    18    81    1
   101    19    82    1
   102    19    83    1
   103    20    23    1
   104    21    84    1
   105    21    85    1
   106    22    86    1
   107    22    87    1
   108    27    45    1
   109    28    34    1
   110    32    58    1
   111    33    46    2
   112    36    51    1
   113    36    66    1
   114    37    52    1
   115    37    67    1
   116    38    53    1
   117    38    68    1
   118    42    48    1
   119    42    72    1
   120    43    44    2
   121    60    73    1
   122    61    74    1
   123    39    69    1
   124    39    57    1
   125    40    70    1
   126    40    50    1
   127    41    71    1
   128    41    49    1
