@<TRIPOS>MOLECULE
*****
 123 128 0 0 0
SMALL
GASTEIGER

@<TRIPOS>ATOM
     1 C         5.167005   1.749608   0.4901 C.3        1 UNL1     0.0009
     2 C         6.603273   2.556204   -0.360532 C.2        1 UNL1     -0.0787
     3 C         7.884956   2.458427   -1.026696 C.2        1 UNL1     -0.0649
     4 C         8.761936   3.693911   -1.782238 C.2        1 UNL1     -0.0542
     5 C         9.781608   3.986989   -2.721095 C.2        1 UNL1     0.0115
     6 C         10.909644   3.361979   -3.587248 C.3        1 UNL1     -0.0348
     7 C         9.876481   5.470423   -3.327241 C.2        1 UNL1     0.2441
     8 O         10.700335   6.292122   -2.949616 O.2        1 UNL1     -0.2702
     9 N         9.125847   5.67756   -4.497623 N.am        1 UNL1     -0.2772
     10 C         7.843162   6.063924   -4.183356 C.2        1 UNL1     0.1049
     11 C         6.997647   5.092279   -3.891406 C.2        1 UNL1     0.0801
     12 C         6.544928   7.669967   -2.77178 C.ar        1 UNL1     0.0753
     13 C         5.78622   6.541795   -2.324344 C.ar        1 UNL1     0.0305
     14 C         5.903183   5.236285   -2.97011 C.2        1 UNL1     0.0924
     15 N         7.120459   3.763365   -4.050883 N.pl3        1 UNL1     -0.3170
     16 C         5.85081   3.163881   -3.736458 C.3        1 UNL1     0.1275
     17 N         5.21455   4.118742   -2.756082 N.2        1 UNL1     -0.2557
     18 C         4.997546   3.223127   -4.999839 C.3        1 UNL1     0.0016
     19 C         5.752191   2.539468   -6.128871 C.3        1 UNL1     0.0026
     20 N         6.022708   1.161315   -5.74346 N.3        1 UNL1     -0.3018
     21 C         6.786492   1.000736   -4.504421 C.3        1 UNL1     0.0026
     22 C         6.007979   1.69082   -3.382994 C.3        1 UNL1     0.0016
     23 C         6.467009   0.342149   -6.853508 C.3        1 UNL1     0.0012
     24 C         5.311295   0.09272   -7.835275 C.3        1 UNL1     -0.0339
     25 C         5.346445   1.085181   -9.00909 C.3        1 UNL1     -0.0615
     26 C         5.340504   -1.346646   -8.319169 C.3        1 UNL1     -0.0615
     27 C         6.340209   8.937482   -2.231768 C.ar        1 UNL1     0.1347
     28 C         5.38141   9.206605   -1.271389 C.ar        1 UNL1     0.0342
     29 C         4.680203   8.071907   -0.811026 C.ar        1 UNL1     0.1435
     30 C         4.899718   6.790051   -1.316872 C.ar        1 UNL1     0.0774
     31 O         3.639466   8.185061   0.042829 O.3        1 UNL1     -0.4436
     32 C         2.917968   6.952146   -0.099418 C.3        1 UNL1     0.3143
     33 C         3.931274   5.959364   -0.632152 C.2        1 UNL1     0.2504
     34 C         4.934464   10.572513   -0.830215 C.3        1 UNL1     -0.0327
     35 O         2.557839   6.515041   1.216826 O.2        1 UNL1     -0.4528
     36 C         -0.684984   4.582365   0.820653 C.3        1 UNL1     0.0854
     37 C         -0.990352   3.321955   -0.076921 C.3        1 UNL1     0.0236
     38 C         -1.59042   2.0606   0.71089 C.3        1 UNL1     0.1131
     39 C         -0.864139   1.529466   2.011921 C.3        1 UNL1     0.0200
     40 C         0.797093   1.384214   2.052507 C.3        1 UNL1     0.0661
     41 C         1.756219   0.615856   0.883185 C.3        1 UNL1     0.0091
     42 C         3.463554   0.978867   0.318712 C.3        1 UNL1     0.0661
     43 C         7.494639   7.462722   -3.893099 C.2        1 UNL1     0.2131
     44 O         7.894123   8.361054   -4.611535 O.2        1 UNL1     -0.2851
     45 O         7.152137   9.972854   -2.690263 O.3        1 UNL1     -0.5056
     46 O         3.947525   4.755799   -0.501683 O.2        1 UNL1     -0.2836
     47 C         5.56392   1.319843   1.928065 C.3        1 UNL1     -0.0566
     48 O         3.912401   -0.432177   0.399997 O.3        1 UNL1     -0.3909
     49 C         0.921664   0.383424   -0.356568 C.3        1 UNL1     -0.0577
     50 O         1.3972   2.602087   2.445418 O.3        1 UNL1     -0.3910
     51 O         -0.808578   4.392321   2.212069 O.3        1 UNL1     -0.3753
     52 C         0.05375   3.16196   -1.229831 C.3        1 UNL1     -0.0564
     53 O         -2.193133   1.021731   -0.189007 O.3        1 UNL1     -0.4608
     54 C         -2.427194   -0.285148   0.150425 C.2        1 UNL1     0.3042
     55 O         -1.858061   -1.284066   -0.287852 O.2        1 UNL1     -0.2512
     56 C         -3.466827   -0.451245   1.222008 C.3        1 UNL1     0.0332
     57 C         -1.584869   2.198018   3.273572 C.3        1 UNL1     -0.0567
     58 C         1.842368   7.197311   -1.183166 C.3        1 UNL1     0.0210
     59 C         -1.121741   5.571088   2.952544 C.3        1 UNL1     0.0372
     60 C         0.643822   5.211745   0.589749 C.2        1 UNL1     -0.0208
     61 C         1.556969   5.646929   1.458957 C.2        1 UNL1     0.0882
     62 H         4.690938   2.733674   0.577768 H        1 UNL1     0.0365
     63 H         6.336872   3.60993   -0.254881 H        1 UNL1     0.0576
     64 H         8.34271   1.491714   -1.248132 H        1 UNL1     0.0615
     65 H         8.274806   4.609135   -1.435033 H        1 UNL1     0.0622
     66 H         -1.429872   5.328835   0.510861 H        1 UNL1     0.0645
     67 H         -1.856161   3.631314   -0.687849 H        1 UNL1     0.0362
     68 H         -2.537451   2.497221   1.063051 H        1 UNL1     0.0741
     69 H         -1.195415   0.518262   2.207189 H        1 UNL1     0.0359
     70 H         0.909283   0.72369   2.933519 H        1 UNL1     0.0600
     71 H         1.800127   -0.405405   1.309865 H        1 UNL1     0.0348
     72 H         3.357916   1.466816   1.29854 H        1 UNL1     0.0602
     73 H         0.761333   5.409266   -0.446796 H        1 UNL1     0.0628
     74 H         1.539821   5.436004   2.528749 H        1 UNL1     0.1022
     75 H         10.935755   2.253282   -3.456314 H        1 UNL1     0.0279
     76 H         10.809067   3.468277   -4.665049 H        1 UNL1     0.0279
     77 H         11.915576   3.644589   -3.243835 H        1 UNL1     0.0279
     78 H         9.063824   4.807726   -5.022618 H        1 UNL1     0.1553
     79 H         7.785597   3.335641   -4.668602 H        1 UNL1     0.1484
     80 H         4.036418   2.731975   -4.805496 H        1 UNL1     0.0317
     81 H         4.770662   4.259904   -5.270517 H        1 UNL1     0.0317
     82 H         6.682675   3.070995   -6.377045 H        1 UNL1     0.0428
     83 H         5.126726   2.594713   -7.020382 H        1 UNL1     0.0428
     84 H         6.907102   -0.042268   -4.195541 H        1 UNL1     0.0428
     85 H         7.816483   1.368977   -4.6085 H        1 UNL1     0.0428
     86 H         6.524755   1.440332   -2.475147 H        1 UNL1     0.0317
     87 H         5.028662   1.212979   -3.257686 H        1 UNL1     0.0317
     88 H         7.262797   0.884213   -7.380939 H        1 UNL1     0.0429
     89 H         6.899892   -0.60363   -6.502953 H        1 UNL1     0.0429
     90 H         4.35842   0.211499   -7.305997 H        1 UNL1     0.0308
     91 H         6.299442   1.034701   -9.544207 H        1 UNL1     0.0233
     92 H         4.531352   0.885227   -9.708554 H        1 UNL1     0.0233
     93 H         5.220241   2.124191   -8.68142 H        1 UNL1     0.0233
     94 H         4.645755   -1.478039   -9.155766 H        1 UNL1     0.0233
     95 H         6.343937   -1.602285   -8.670926 H        1 UNL1     0.0233
     96 H         5.057967   -2.041106   -7.523011 H        1 UNL1     0.0233
     97 H         4.13509   10.522553   -0.096911 H        1 UNL1     0.0280
     98 H         5.744854   11.139106   -0.353249 H        1 UNL1     0.0280
     99 H         4.569197   11.140564   -1.701417 H        1 UNL1     0.0280
     100 H         6.684875   10.72398   -3.011352 H        1 UNL1     0.2922
     101 H         4.698213   0.897345   2.437676 H        1 UNL1     0.0236
     102 H         6.025847   2.121756   2.502992 H        1 UNL1     0.0236
     103 H         6.311137   0.508759   1.926497 H        1 UNL1     0.0236
     104 H         4.331939   -0.558387   1.273512 H        1 UNL1     0.2098
     105 H         0.70866   1.282351   -0.929606 H        1 UNL1     0.0234
     106 H         1.290971   -0.404379   -1.013003 H        1 UNL1     0.0234
     107 H         0.0   -0.0   0.0 H        1 UNL1     0.0234
     108 H         1.213319   3.255805   1.743557 H        1 UNL1     0.2098
     109 H         1.080182   3.060973   -0.850422 H        1 UNL1     0.0234
     110 H         -0.172106   2.327362   -1.902274 H        1 UNL1     0.0234
     111 H         0.06577   4.039699   -1.88966 H        1 UNL1     0.0234
     112 H         -3.589947   -1.512201   1.45983 H        1 UNL1     0.0342
     113 H         -3.229715   0.124466   2.115416 H        1 UNL1     0.0342
     114 H         -4.424443   -0.080332   0.831417 H        1 UNL1     0.0342
     115 H         -2.654435   1.949539   3.311984 H        1 UNL1     0.0234
     116 H         -1.148033   1.918115   4.234237 H        1 UNL1     0.0234
     117 H         -1.623684   3.299878   3.22521 H        1 UNL1     0.0234
     118 H         0.940724   7.682548   -0.770142 H        1 UNL1     0.0309
     119 H         2.210914   7.786855   -2.028632 H        1 UNL1     0.0309
     120 H         1.454927   6.265416   -1.609272 H        1 UNL1     0.0309
     121 H         -0.300867   6.274435   2.815339 H        1 UNL1     0.0524
     122 H         -2.04175   6.060046   2.591239 H        1 UNL1     0.0524
     123 H         -1.239309   5.333083   4.005932 H        1 UNL1     0.0524
@<TRIPOS>BOND
     1     1     2    1
     2     1    42    1
     3     2     3    2
     4     3     4    1
     5     4     5    2
     6     5     7    1
     7     6    75    1
     8     6    76    1
     9     6    77    1
    10     7     9   am
    11     9    10    1
    12    10    11    2
    13    10    43    1
    14    11    14    1
    15    11    15    1
    16    12    13   ar
    17    12    27   ar
    18    12    43    1
    19    13    14    1
    20    13    30   ar
    21    14    17    2
    22    15    16    1
    23    16    17    1
    24    16    18    1
    25    16    22    1
    26    18    19    1
    27    19    20    1
    28    20    21    1
    29    21    22    1
    30    23    24    1
    31    23    88    1
    32    23    89    1
    33    24    25    1
    34    24    26    1
    35    24    90    1
    36    25    91    1
    37    25    92    1
    38    25    93    1
    39    26    94    1
    40    26    95    1
    41    26    96    1
    42    27    28   ar
    43    28    29   ar
    44    29    30   ar
    45    29    31    1
    46    30    33    1
    47    31    32    1
    48    32    33    1
    49    32    35    1
    50    34    97    1
    51    34    98    1
    52    34    99    1
    53    35    61    1
    54    36    37    1
    55    36    60    1
    56    37    38    1
    57    38    39    1
    58    39    40    1
    59    40    41    1
    60    41    42    1
    61    45   100    1
    62    47   101    1
    63    47   102    1
    64    47   103    1
    65    48   104    1
    66    49   105    1
    67    49   106    1
    68    49   107    1
    69    50   108    1
    70    51    59    1
    71    52   109    1
    72    52   110    1
    73    52   111    1
    74    53    54    1
    75    54    55    2
    76    54    56    1
    77    56   112    1
    78    56   113    1
    79    56   114    1
    80    57   115    1
    81    57   116    1
    82    57   117    1
    83    58   118    1
    84    58   119    1
    85    58   120    1
    86    59   121    1
    87    59   122    1
    88    59   123    1
    89    60    61    2
    90     1    47    1
    91     1    62    1
    92     2    63    1
    93     3    64    1
    94     4    65    1
    95     5     6    1
    96     7     8    2
    97     9    78    1
    98    15    79    1
    99    18    80    1
   100    18    81    1
   101    19    82    1
   102    19    83    1
   103    20    23    1
   104    21    84    1
   105    21    85    1
   106    22    86    1
   107    22    87    1
   108    27    45    1
   109    28    34    1
   110    32    58    1
   111    33    46    2
   112    36    51    1
   113    36    66    1
   114    37    52    1
   115    37    67    1
   116    38    53    1
   117    38    68    1
   118    42    48    1
   119    42    72    1
   120    43    44    2
   121    60    73    1
   122    61    74    1
   123    39    69    1
   124    39    57    1
   125    40    70    1
   126    40    50    1
   127    41    71    1
   128    41    49    1
