@<TRIPOS>MOLECULE
*****
 123 128 0 0 0
SMALL
GASTEIGER

@<TRIPOS>ATOM
     1 C         -0.388601   0.267312   -5.457956 C.3        1 UNL1     0.0009
     2 C         -0.489812   1.381801   -6.936032 C.2        1 UNL1     -0.0787
     3 C         -1.267769   2.020292   -7.976781 C.2        1 UNL1     -0.0649
     4 C         -0.748725   3.167583   -9.108449 C.2        1 UNL1     -0.0542
     5 C         -1.16224   4.183267   -10.005371 C.2        1 UNL1     0.0115
     6 C         -2.399327   4.832516   -10.684648 C.3        1 UNL1     -0.0348
     7 C         -0.078577   5.24546   -10.529214 C.2        1 UNL1     0.2441
     8 O         0.42862   5.185454   -11.640823 O.2        1 UNL1     -0.2702
     9 N         0.054749   6.393919   -9.729577 N.am        1 UNL1     -0.2772
     10 C         0.983132   6.182319   -8.736274 C.2        1 UNL1     0.1049
     11 C         0.547797   5.560297   -7.655628 C.2        1 UNL1     0.0801
     12 C         3.302436   5.334615   -8.336821 C.ar        1 UNL1     0.0753
     13 C         2.74165   4.517258   -7.304322 C.ar        1 UNL1     0.0305
     14 C         1.367386   4.702214   -6.843628 C.2        1 UNL1     0.0924
     15 N         -0.707945   5.278684   -7.267902 N.pl3        1 UNL1     -0.3170
     16 C         -0.646322   4.743793   -5.933605 C.3        1 UNL1     0.1275
     17 N         0.720809   4.110972   -5.842979 N.2        1 UNL1     -0.2557
     18 C         -0.629327   5.92817   -4.97201 C.3        1 UNL1     0.0016
     19 C         -1.84867   6.794192   -5.245503 C.3        1 UNL1     0.0026
     20 N         -3.04668   5.986824   -5.061231 N.3        1 UNL1     -0.3018
     21 C         -3.124485   4.789258   -5.900368 C.3        1 UNL1     0.0026
     22 C         -1.892443   3.931748   -5.606017 C.3        1 UNL1     0.0016
     23 C         -4.258133   6.780354   -5.003486 C.3        1 UNL1     0.0012
     24 C         -4.311398   7.587725   -3.696937 C.3        1 UNL1     -0.0339
     25 C         -5.728144   7.598077   -3.099625 C.3        1 UNL1     -0.0615
     26 C         -3.292154   7.047473   -2.708985 C.3        1 UNL1     -0.0615
     27 C         4.646935   5.23417   -8.686609 C.ar        1 UNL1     0.1347
     28 C         5.534424   4.384668   -8.0504 C.ar        1 UNL1     0.0342
     29 C         4.949301   3.554837   -7.070515 C.ar        1 UNL1     0.1435
     30 C         3.596431   3.618801   -6.73455 C.ar        1 UNL1     0.0774
     31 O         5.701415   2.752042   -6.28639 O.3        1 UNL1     -0.4436
     32 C         4.863297   2.458204   -5.15852 C.3        1 UNL1     0.3143
     33 C         3.446257   2.668252   -5.652575 C.2        1 UNL1     0.2504
     34 C         7.030521   4.401945   -8.197004 C.3        1 UNL1     -0.0327
     35 O         5.003767   1.060434   -4.876104 O.2        1 UNL1     -0.4528
     36 C         4.461828   0.694627   -1.137044 C.3        1 UNL1     0.0854
     37 C         3.218263   1.118365   -0.264395 C.3        1 UNL1     0.0236
     38 C         2.578171   -0.058873   0.616591 C.3        1 UNL1     0.1131
     39 C         2.209071   -1.437802   -0.065018 C.3        1 UNL1     0.0200
     40 C         1.447145   -1.46975   -1.548556 C.3        1 UNL1     0.0661
     41 C         0.062454   -0.58684   -1.973656 C.3        1 UNL1     0.0091
     42 C         -0.448904   0.120732   -3.587117 C.3        1 UNL1     0.0661
     43 C         2.425824   6.356065   -8.961681 C.2        1 UNL1     0.2131
     44 O         2.846841   7.342137   -9.538868 O.2        1 UNL1     -0.2851
     45 O         5.102672   6.033242   -9.73314 O.3        1 UNL1     -0.5056
     46 O         2.425791   2.15059   -5.256936 O.2        1 UNL1     -0.2836
     47 C         -0.50109   -1.218332   -5.894063 C.3        1 UNL1     -0.0566
     48 O         -1.833433   -0.404522   -3.507716 O.3        1 UNL1     -0.3909
     49 C         -0.175927   0.480108   -0.928529 C.3        1 UNL1     -0.0577
     50 O         2.392187   -1.421436   -2.598452 O.3        1 UNL1     -0.3910
     51 O         4.748004   -0.685327   -1.172578 O.3        1 UNL1     -0.3753
     52 C         2.337027   2.188216   -0.988129 C.3        1 UNL1     -0.0564
     53 O         1.643343   0.430096   1.683986 O.3        1 UNL1     -0.4608
     54 C         0.485873   -0.191814   2.073113 C.2        1 UNL1     0.3042
     55 O         -0.666345   0.120735   1.775546 O.2        1 UNL1     -0.2512
     56 C         0.714191   -1.418356   2.90988 C.3        1 UNL1     0.0332
     57 C         3.440529   -2.432877   0.161949 C.3        1 UNL1     -0.0567
     58 C         5.181543   3.526786   -4.086895 C.3        1 UNL1     0.0210
     59 C         5.911362   -1.075162   -0.444229 C.3        1 UNL1     0.0372
     60 C         4.427567   1.162405   -2.549549 C.2        1 UNL1     -0.0208
     61 C         4.704941   0.51437   -3.681741 C.2        1 UNL1     0.0882
     62 H         0.68238   0.492043   -5.385798 H        1 UNL1     0.0365
     63 H         0.565655   1.619239   -7.084631 H        1 UNL1     0.0576
     64 H         -2.35531   1.926944   -8.017398 H        1 UNL1     0.0615
     65 H         0.341778   3.124345   -9.041999 H        1 UNL1     0.0622
     66 H         5.314331   1.207851   -0.67026 H        1 UNL1     0.0645
     67 H         3.64829   1.768477   0.517264 H        1 UNL1     0.0362
     68 H         3.430815   -0.278833   1.276999 H        1 UNL1     0.0741
     69 H         1.510869   -1.964807   0.571526 H        1 UNL1     0.0359
     70 H         1.082016   -2.514605   -1.552931 H        1 UNL1     0.0600
     71 H         -0.723385   -1.323404   -1.715029 H        1 UNL1     0.0348
     72 H         0.303358   -0.647556   -3.817664 H        1 UNL1     0.0602
     73 H         4.253378   2.209601   -2.566528 H        1 UNL1     0.0628
     74 H         4.837998   -0.565346   -3.757542 H        1 UNL1     0.1022
     75 H         -3.072896   4.047264   -11.105025 H        1 UNL1     0.0279
     76 H         -3.069363   5.393866   -10.037341 H        1 UNL1     0.0279
     77 H         -2.138254   5.401127   -11.589205 H        1 UNL1     0.0279
     78 H         -0.833926   6.602032   -9.278997 H        1 UNL1     0.1553
     79 H         -1.520205   5.743092   -7.630522 H        1 UNL1     0.1484
     80 H         -0.628005   5.552236   -3.941749 H        1 UNL1     0.0317
     81 H         0.286626   6.516602   -5.092129 H        1 UNL1     0.0317
     82 H         -1.818407   7.233201   -6.253604 H        1 UNL1     0.0428
     83 H         -1.815838   7.633604   -4.550262 H        1 UNL1     0.0428
     84 H         -3.99341   4.159261   -5.686159 H        1 UNL1     0.0428
     85 H         -3.233835   5.04188   -6.964108 H        1 UNL1     0.0428
     86 H         -2.048876   3.009298   -6.133845 H        1 UNL1     0.0317
     87 H         -1.892457   3.624762   -4.552994 H        1 UNL1     0.0317
     88 H         -4.247337   7.48207   -5.847745 H        1 UNL1     0.0429
     89 H         -5.151541   6.153083   -5.118058 H        1 UNL1     0.0429
     90 H         -4.01112   8.622234   -3.901477 H        1 UNL1     0.0308
     91 H         -6.420272   8.167329   -3.727329 H        1 UNL1     0.0233
     92 H         -6.105362   6.579472   -2.982321 H        1 UNL1     0.0233
     93 H         -5.757269   8.051778   -2.101556 H        1 UNL1     0.0233
     94 H         -3.570339   7.328721   -1.687541 H        1 UNL1     0.0233
     95 H         -3.2629   5.955544   -2.761875 H        1 UNL1     0.0233
     96 H         -2.291451   7.437767   -2.914491 H        1 UNL1     0.0233
     97 H         7.531229   4.56158   -7.24672 H        1 UNL1     0.0280
     98 H         7.419257   3.451617   -8.585613 H        1 UNL1     0.0280
     99 H         7.324756   5.212942   -8.883157 H        1 UNL1     0.0280
     100 H         4.571092   6.002855   -10.509105 H        1 UNL1     0.2922
     101 H         0.481202   -1.688614   -5.854146 H        1 UNL1     0.0236
     102 H         -0.975893   -1.34485   -6.866452 H        1 UNL1     0.0236
     103 H         -1.122129   -1.808015   -5.199242 H        1 UNL1     0.0236
     104 H         -1.788337   -1.296005   -3.10998 H        1 UNL1     0.2098
     105 H         0.496   1.3321   -0.99513 H        1 UNL1     0.0234
     106 H         -1.208963   0.818857   -0.85099 H        1 UNL1     0.0234
     107 H         0.0   0.0   0.0 H        1 UNL1     0.0234
     108 H         1.904394   -1.21318   -3.418486 H        1 UNL1     0.2098
     109 H         2.893237   3.112568   -1.19769 H        1 UNL1     0.0234
     110 H         1.88182   1.81691   -1.912608 H        1 UNL1     0.0234
     111 H         1.479719   2.490394   -0.371966 H        1 UNL1     0.0234
     112 H         -0.245319   -1.876667   3.168021 H        1 UNL1     0.0342
     113 H         1.369157   -2.134762   2.416295 H        1 UNL1     0.0342
     114 H         1.202441   -1.110005   3.844598 H        1 UNL1     0.0342
     115 H         3.109047   -3.474741   0.270698 H        1 UNL1     0.0234
     116 H         4.185243   -2.406832   -0.63603 H        1 UNL1     0.0234
     117 H         3.963236   -2.274364   1.120903 H        1 UNL1     0.0234
     118 H         5.713335   3.098378   -3.219329 H        1 UNL1     0.0309
     119 H         5.757996   4.370493   -4.479405 H        1 UNL1     0.0309
     120 H         4.278104   3.957743   -3.64172 H        1 UNL1     0.0309
     121 H         6.288454   -1.993991   -0.89246 H        1 UNL1     0.0524
     122 H         6.714738   -0.322201   -0.504833 H        1 UNL1     0.0524
     123 H         5.66264   -1.24211   0.599974 H        1 UNL1     0.0524
@<TRIPOS>BOND
     1     1     2    1
     2     1    42    1
     3     2     3    2
     4     3     4    1
     5     4     5    2
     6     5     7    1
     7     6    75    1
     8     6    76    1
     9     6    77    1
    10     7     9   am
    11     9    10    1
    12    10    11    2
    13    10    43    1
    14    11    14    1
    15    11    15    1
    16    12    13   ar
    17    12    27   ar
    18    12    43    1
    19    13    14    1
    20    13    30   ar
    21    14    17    2
    22    15    16    1
    23    16    17    1
    24    16    18    1
    25    16    22    1
    26    18    19    1
    27    19    20    1
    28    20    21    1
    29    21    22    1
    30    23    24    1
    31    23    88    1
    32    23    89    1
    33    24    25    1
    34    24    26    1
    35    24    90    1
    36    25    91    1
    37    25    92    1
    38    25    93    1
    39    26    94    1
    40    26    95    1
    41    26    96    1
    42    27    28   ar
    43    28    29   ar
    44    29    30   ar
    45    29    31    1
    46    30    33    1
    47    31    32    1
    48    32    33    1
    49    32    35    1
    50    34    97    1
    51    34    98    1
    52    34    99    1
    53    35    61    1
    54    36    37    1
    55    36    60    1
    56    37    38    1
    57    38    39    1
    58    39    40    1
    59    40    41    1
    60    41    42    1
    61    45   100    1
    62    47   101    1
    63    47   102    1
    64    47   103    1
    65    48   104    1
    66    49   105    1
    67    49   106    1
    68    49   107    1
    69    50   108    1
    70    51    59    1
    71    52   109    1
    72    52   110    1
    73    52   111    1
    74    53    54    1
    75    54    55    2
    76    54    56    1
    77    56   112    1
    78    56   113    1
    79    56   114    1
    80    57   115    1
    81    57   116    1
    82    57   117    1
    83    58   118    1
    84    58   119    1
    85    58   120    1
    86    59   121    1
    87    59   122    1
    88    59   123    1
    89    60    61    2
    90     1    47    1
    91     1    62    1
    92     2    63    1
    93     3    64    1
    94     4    65    1
    95     5     6    1
    96     7     8    2
    97     9    78    1
    98    15    79    1
    99    18    80    1
   100    18    81    1
   101    19    82    1
   102    19    83    1
   103    20    23    1
   104    21    84    1
   105    21    85    1
   106    22    86    1
   107    22    87    1
   108    27    45    1
   109    28    34    1
   110    32    58    1
   111    33    46    2
   112    36    51    1
   113    36    66    1
   114    37    52    1
   115    37    67    1
   116    38    53    1
   117    38    68    1
   118    42    48    1
   119    42    72    1
   120    43    44    2
   121    60    73    1
   122    61    74    1
   123    39    69    1
   124    39    57    1
   125    40    70    1
   126    40    50    1
   127    41    71    1
   128    41    49    1
