@<TRIPOS>MOLECULE
*****
 123 128 0 0 0
SMALL
GASTEIGER

@<TRIPOS>ATOM
     1 C         5.030203   -0.482405   -2.115679 C.3        1 UNL1     0.0009
     2 C         6.069053   -0.359396   -3.646266 C.2        1 UNL1     -0.0787
     3 C         6.770398   -0.993579   -4.742612 C.2        1 UNL1     -0.0649
     4 C         7.538223   -0.250087   -6.055632 C.2        1 UNL1     -0.0542
     5 C         8.025498   -0.435769   -7.372887 C.2        1 UNL1     0.0115
     6 C         8.333   -1.501678   -8.460363 C.3        1 UNL1     -0.0348
     7 C         8.306083   0.854077   -8.286428 C.2        1 UNL1     0.2441
     8 O         9.428845   1.297364   -8.484995 O.2        1 UNL1     -0.2702
     9 N         7.208252   1.2835   -9.05227 N.am        1 UNL1     -0.2772
     10 C         6.435156   2.164484   -8.331499 C.2        1 UNL1     0.1049
     11 C         5.561253   1.626518   -7.500169 C.2        1 UNL1     0.0801
     12 C         6.569346   4.224291   -6.918516 C.ar        1 UNL1     0.0753
     13 C         5.788196   3.516286   -5.950454 C.ar        1 UNL1     0.0305
     14 C         5.148641   2.241374   -6.267659 C.2        1 UNL1     0.0924
     15 N         5.148269   0.352536   -7.386416 N.pl3        1 UNL1     -0.3170
     16 C         4.060876   0.325553   -6.444554 C.3        1 UNL1     0.1275
     17 N         4.318136   1.503321   -5.536587 N.2        1 UNL1     -0.2557
     18 C         2.786479   0.655727   -7.215656 C.3        1 UNL1     0.0016
     19 C         2.645273   -0.328421   -8.365919 C.3        1 UNL1     0.0026
     20 N         2.593987   -1.678694   -7.822634 N.3        1 UNL1     -0.3018
     21 C         3.750322   -2.067236   -7.012515 C.3        1 UNL1     0.0026
     22 C         3.870541   -1.068078   -5.860506 C.3        1 UNL1     0.0016
     23 C         2.163309   -2.662279   -8.796144 C.3        1 UNL1     0.0012
     24 C         0.67275   -2.479929   -9.122852 C.3        1 UNL1     -0.0339
     25 C         0.288756   -3.207031   -10.422055 C.3        1 UNL1     -0.0615
     26 C         -0.177303   -2.94134   -7.951831 C.3        1 UNL1     -0.0615
     27 C         7.07471   5.494015   -6.64921 C.ar        1 UNL1     0.1347
     28 C         6.83272   6.171359   -5.467391 C.ar        1 UNL1     0.0342
     29 C         6.102536   5.435116   -4.510342 C.ar        1 UNL1     0.1435
     30 C         5.620667   4.148098   -4.75243 C.ar        1 UNL1     0.0774
     31 O         5.691854   5.996882   -3.352428 O.3        1 UNL1     -0.4436
     32 C         4.628295   5.148187   -2.894791 C.3        1 UNL1     0.3143
     33 C         4.878091   3.80815   -3.556695 C.2        1 UNL1     0.2504
     34 C         7.125819   7.622707   -5.207041 C.3        1 UNL1     -0.0327
     35 O         4.810922   4.958279   -1.486304 O.2        1 UNL1     -0.4528
     36 C         1.335235   4.460773   -0.044024 C.3        1 UNL1     0.0854
     37 C         0.246385   3.382696   -0.417761 C.3        1 UNL1     0.0236
     38 C         -0.288321   2.506787   0.81456 C.3        1 UNL1     0.1131
     39 C         0.744437   1.797009   1.779907 C.3        1 UNL1     0.0200
     40 C         2.074022   1.003967   1.158837 C.3        1 UNL1     0.0661
     41 C         2.053071   -0.141286   -0.09239 C.3        1 UNL1     0.0091
     42 C         3.302367   -0.517989   -1.381869 C.3        1 UNL1     0.0661
     43 C         6.74835   3.59906   -8.252421 C.2        1 UNL1     0.2131
     44 O         7.032101   4.226002   -9.256994 O.2        1 UNL1     -0.2851
     45 O         7.863559   6.095267   -7.627807 O.3        1 UNL1     -0.5056
     46 O         4.556144   2.706148   -3.172254 O.2        1 UNL1     -0.2836
     47 C         5.891699   -0.961133   -0.916252 C.3        1 UNL1     -0.0566
     48 O         3.242516   -1.984898   -1.172797 O.3        1 UNL1     -0.3909
     49 C         0.708958   -0.08447   -0.783494 C.3        1 UNL1     -0.0577
     50 O         3.151666   1.899997   0.975709 O.3        1 UNL1     -0.3910
     51 O         1.8282   4.406654   1.27563 O.3        1 UNL1     -0.3753
     52 C         0.503237   2.76151   -1.829535 C.3        1 UNL1     -0.0564
     53 O         -1.548351   1.749973   0.511439 O.3        1 UNL1     -0.4608
     54 C         -1.846408   0.489841   0.959946 C.2        1 UNL1     0.3042
     55 O         -1.785715   -0.562559   0.325432 O.2        1 UNL1     -0.2512
     56 C         -2.231155   0.443417   2.411335 C.3        1 UNL1     0.0332
     57 C         0.970982   2.76054   3.036275 C.3        1 UNL1     -0.0567
     58 C         3.318178   5.746347   -3.458109 C.3        1 UNL1     0.0210
     59 C         1.385858   5.464712   2.124579 C.3        1 UNL1     0.0372
     60 C         2.520272   4.495796   -0.943814 C.2        1 UNL1     -0.0208
     61 C         3.820614   4.574509   -0.658054 C.2        1 UNL1     0.0882
     62 H         5.00676   0.612932   -2.066696 H        1 UNL1     0.0365
     63 H         6.2485   0.717081   -3.684554 H        1 UNL1     0.0576
     64 H         6.721455   -2.072519   -4.905709 H        1 UNL1     0.0615
     65 H         7.605526   0.799797   -5.757811 H        1 UNL1     0.0622
     66 H         0.826074   5.425492   -0.178634 H        1 UNL1     0.0645
     67 H         -0.647882   3.980038   -0.666817 H        1 UNL1     0.0362
     68 H         -0.752512   3.301941   1.4177 H        1 UNL1     0.0741
     69 H         0.232333   1.012956   2.321589 H        1 UNL1     0.0359
     70 H         2.363776   0.399121   2.039328 H        1 UNL1     0.0600
     71 H         1.953639   -1.072328   0.499414 H        1 UNL1     0.0348
     72 H         3.839295   0.020701   -0.587617 H        1 UNL1     0.0602
     73 H         2.192279   4.577206   -1.950313 H        1 UNL1     0.0628
     74 H         4.241941   4.442513   0.339091 H        1 UNL1     0.1022
     75 H         8.901998   -2.356518   -8.021588 H        1 UNL1     0.0279
     76 H         7.475554   -1.997239   -8.910114 H        1 UNL1     0.0279
     77 H         9.038553   -1.140146   -9.222721 H        1 UNL1     0.0279
     78 H         6.622986   0.485021   -9.288856 H        1 UNL1     0.1553
     79 H         5.259572   -0.335607   -8.108222 H        1 UNL1     0.1484
     80 H         1.930395   0.598889   -6.532534 H        1 UNL1     0.0317
     81 H         2.81504   1.681825   -7.5977 H        1 UNL1     0.0317
     82 H         3.464207   -0.22513   -9.092962 H        1 UNL1     0.0428
     83 H         1.731323   -0.073819   -8.903434 H        1 UNL1     0.0428
     84 H         3.650841   -3.054741   -6.551267 H        1 UNL1     0.0428
     85 H         4.66479   -2.145815   -7.616577 H        1 UNL1     0.0428
     86 H         4.638961   -1.457324   -5.218627 H        1 UNL1     0.0317
     87 H         2.971392   -1.108982   -5.233645 H        1 UNL1     0.0317
     88 H         2.743786   -2.509836   -9.715438 H        1 UNL1     0.0429
     89 H         2.370883   -3.683092   -8.45027 H        1 UNL1     0.0429
     90 H         0.459881   -1.411269   -9.244773 H        1 UNL1     0.0308
     91 H         0.688366   -4.225392   -10.44093 H        1 UNL1     0.0233
     92 H         -0.797052   -3.245666   -10.536671 H        1 UNL1     0.0233
     93 H         0.672536   -2.698105   -11.314547 H        1 UNL1     0.0233
     94 H         -1.189896   -3.183298   -8.292342 H        1 UNL1     0.0233
     95 H         0.25422   -3.84361   -7.509498 H        1 UNL1     0.0233
     96 H         -0.247328   -2.168981   -7.180775 H        1 UNL1     0.0233
     97 H         6.232259   8.176323   -4.934477 H        1 UNL1     0.0280
     98 H         7.829718   7.760112   -4.375836 H        1 UNL1     0.0280
     99 H         7.553327   8.081285   -6.113704 H        1 UNL1     0.0280
     100 H         8.549018   5.548078   -7.968912 H        1 UNL1     0.2922
     101 H         6.105185   -0.119419   -0.257771 H        1 UNL1     0.0236
     102 H         6.798615   -1.482361   -1.220894 H        1 UNL1     0.0236
     103 H         5.352282   -1.683522   -0.281132 H        1 UNL1     0.0236
     104 H         3.148707   -2.142442   -0.212927 H        1 UNL1     0.2098
     105 H         0.578979   0.769659   -1.443329 H        1 UNL1     0.0234
     106 H         0.419983   -1.003301   -1.293562 H        1 UNL1     0.0234
     107 H         -0.0   0.0   0.0 H        1 UNL1     0.0234
     108 H         3.808915   1.45142   0.40952 H        1 UNL1     0.2098
     109 H         0.473418   3.516256   -2.627771 H        1 UNL1     0.0234
     110 H         1.443065   2.202119   -1.889103 H        1 UNL1     0.0234
     111 H         -0.264289   2.02115   -2.091672 H        1 UNL1     0.0234
     112 H         -2.435164   -0.58948   2.709411 H        1 UNL1     0.0342
     113 H         -1.472323   0.891964   3.050728 H        1 UNL1     0.0342
     114 H         -3.157557   1.020101   2.539318 H        1 UNL1     0.0342
     115 H         0.466224   3.727653   2.905515 H        1 UNL1     0.0234
     116 H         0.633129   2.339477   3.98528 H        1 UNL1     0.0234
     117 H         2.019287   3.082372   3.160464 H        1 UNL1     0.0234
     118 H         2.688791   6.186632   -2.664996 H        1 UNL1     0.0309
     119 H         3.48837   6.49573   -4.237635 H        1 UNL1     0.0309
     120 H         2.667194   4.986779   -3.904631 H        1 UNL1     0.0309
     121 H         2.135036   5.596517   2.904782 H        1 UNL1     0.0524
     122 H         1.295045   6.422847   1.586278 H        1 UNL1     0.0524
     123 H         0.424925   5.215758   2.565854 H        1 UNL1     0.0524
@<TRIPOS>BOND
     1     1     2    1
     2     1    42    1
     3     2     3    2
     4     3     4    1
     5     4     5    2
     6     5     7    1
     7     6    75    1
     8     6    76    1
     9     6    77    1
    10     7     9   am
    11     9    10    1
    12    10    11    2
    13    10    43    1
    14    11    14    1
    15    11    15    1
    16    12    13   ar
    17    12    27   ar
    18    12    43    1
    19    13    14    1
    20    13    30   ar
    21    14    17    2
    22    15    16    1
    23    16    17    1
    24    16    18    1
    25    16    22    1
    26    18    19    1
    27    19    20    1
    28    20    21    1
    29    21    22    1
    30    23    24    1
    31    23    88    1
    32    23    89    1
    33    24    25    1
    34    24    26    1
    35    24    90    1
    36    25    91    1
    37    25    92    1
    38    25    93    1
    39    26    94    1
    40    26    95    1
    41    26    96    1
    42    27    28   ar
    43    28    29   ar
    44    29    30   ar
    45    29    31    1
    46    30    33    1
    47    31    32    1
    48    32    33    1
    49    32    35    1
    50    34    97    1
    51    34    98    1
    52    34    99    1
    53    35    61    1
    54    36    37    1
    55    36    60    1
    56    37    38    1
    57    38    39    1
    58    39    40    1
    59    40    41    1
    60    41    42    1
    61    45   100    1
    62    47   101    1
    63    47   102    1
    64    47   103    1
    65    48   104    1
    66    49   105    1
    67    49   106    1
    68    49   107    1
    69    50   108    1
    70    51    59    1
    71    52   109    1
    72    52   110    1
    73    52   111    1
    74    53    54    1
    75    54    55    2
    76    54    56    1
    77    56   112    1
    78    56   113    1
    79    56   114    1
    80    57   115    1
    81    57   116    1
    82    57   117    1
    83    58   118    1
    84    58   119    1
    85    58   120    1
    86    59   121    1
    87    59   122    1
    88    59   123    1
    89    60    61    2
    90     1    47    1
    91     1    62    1
    92     2    63    1
    93     3    64    1
    94     4    65    1
    95     5     6    1
    96     7     8    2
    97     9    78    1
    98    15    79    1
    99    18    80    1
   100    18    81    1
   101    19    82    1
   102    19    83    1
   103    20    23    1
   104    21    84    1
   105    21    85    1
   106    22    86    1
   107    22    87    1
   108    27    45    1
   109    28    34    1
   110    32    58    1
   111    33    46    2
   112    36    51    1
   113    36    66    1
   114    37    52    1
   115    37    67    1
   116    38    53    1
   117    38    68    1
   118    42    48    1
   119    42    72    1
   120    43    44    2
   121    60    73    1
   122    61    74    1
   123    39    69    1
   124    39    57    1
   125    40    70    1
   126    40    50    1
   127    41    71    1
   128    41    49    1
