@<TRIPOS>MOLECULE
*****
 123 128 0 0 0
SMALL
GASTEIGER

@<TRIPOS>ATOM
     1 C         1.525432   -2.309696   4.727591 C.3        1 UNL1     0.0009
     2 C         2.904394   -3.121497   5.663796 C.2        1 UNL1     -0.0787
     3 C         3.542074   -4.316095   6.175993 C.2        1 UNL1     -0.0649
     4 C         5.037072   -4.442858   6.960384 C.2        1 UNL1     -0.0542
     5 C         6.08945   -5.321037   7.318685 C.2        1 UNL1     0.0115
     6 C         6.516677   -6.813589   7.374252 C.3        1 UNL1     -0.0348
     7 C         7.509334   -4.701226   7.739104 C.2        1 UNL1     0.2441
     8 O         7.878253   -4.61175   8.902039 O.2        1 UNL1     -0.2702
     9 N         8.406688   -4.509155   6.674202 N.am        1 UNL1     -0.2772
     10 C         8.218384   -3.270658   6.105003 C.2        1 UNL1     0.1049
     11 C         7.246063   -3.180515   5.215796 C.2        1 UNL1     0.0801
     12 C         7.98158   -0.844651   6.666914 C.ar        1 UNL1     0.0753
     13 C         6.805529   -0.85101   5.851149 C.ar        1 UNL1     0.0305
     14 C         6.474873   -1.987393   4.994207 C.2        1 UNL1     0.0924
     15 N         6.535205   -4.148321   4.612009 N.pl3        1 UNL1     -0.3170
     16 C         5.718257   -3.528744   3.602566 C.3        1 UNL1     0.1275
     17 N         5.49222   -2.124958   4.108545 N.2        1 UNL1     -0.2557
     18 C         6.575136   -3.393673   2.34749 C.3        1 UNL1     0.0016
     19 C         7.104909   -4.767903   1.970102 C.3        1 UNL1     0.0026
     20 N         5.97519   -5.657736   1.739973 N.3        1 UNL1     -0.3018
     21 C         5.057958   -5.803591   2.87213 C.3        1 UNL1     0.0026
     22 C         4.534322   -4.411963   3.231395 C.3        1 UNL1     0.0016
     23 C         6.3559   -6.895961   1.08997 C.3        1 UNL1     0.0012
     24 C         6.75644   -6.636419   -0.370838 C.3        1 UNL1     -0.0339
     25 C         6.36329   -7.812945   -1.279286 C.3        1 UNL1     -0.0615
     26 C         6.149193   -5.330523   -0.853192 C.3        1 UNL1     -0.0615
     27 C         8.353959   0.287644   7.387581 C.ar        1 UNL1     0.1347
     28 C         7.654392   1.480305   7.34051 C.ar        1 UNL1     0.0342
     29 C         6.473347   1.435497   6.569608 C.ar        1 UNL1     0.1435
     30 C         6.068364   0.297337   5.87118 C.ar        1 UNL1     0.0774
     31 O         5.741528   2.546786   6.336189 O.3        1 UNL1     -0.4436
     32 C         4.948239   2.223287   5.184272 C.3        1 UNL1     0.3143
     33 C         4.87142   0.709992   5.168466 C.2        1 UNL1     0.2504
     34 C         8.126578   2.801368   7.880818 C.3        1 UNL1     -0.0327
     35 O         3.621819   2.705789   5.431365 O.2        1 UNL1     -0.4528
     36 C         2.181378   3.578462   2.029651 C.3        1 UNL1     0.0854
     37 C         2.003703   2.66238   0.758138 C.3        1 UNL1     0.0236
     38 C         0.510779   2.595887   0.176328 C.3        1 UNL1     0.1131
     39 C         -0.695945   2.270262   1.145891 C.3        1 UNL1     0.0200
     40 C         -0.561935   1.058202   2.284043 C.3        1 UNL1     0.0661
     41 C         -0.024308   -0.52399   1.992095 C.3        1 UNL1     0.0091
     42 C         0.897496   -1.685862   3.071787 C.3        1 UNL1     0.0661
     43 C         8.84049   -2.054708   6.649798 C.2        1 UNL1     0.2131
     44 O         10.017903   -2.048788   6.960285 O.2        1 UNL1     -0.2851
     45 O         9.48723   0.195873   8.193008 O.3        1 UNL1     -0.5056
     46 O         4.005911   0.004274   4.700802 O.2        1 UNL1     -0.2836
     47 C         0.229393   -2.294333   5.582009 C.3        1 UNL1     -0.0566
     48 O         0.003364   -2.835179   2.791225 O.3        1 UNL1     -0.3909
     49 C         0.631125   -0.573137   0.629933 C.3        1 UNL1     -0.0577
     50 O         0.014188   1.551961   3.476523 O.3        1 UNL1     -0.3910
     51 O         0.993039   4.080761   2.597963 O.3        1 UNL1     -0.3753
     52 C         2.931249   1.40476   0.812904 C.3        1 UNL1     -0.0564
     53 O         0.430465   2.019656   -1.207086 O.3        1 UNL1     -0.4608
     54 C         -0.696542   1.499028   -1.787372 C.2        1 UNL1     0.3042
     55 O         -0.979521   0.310828   -1.935502 O.2        1 UNL1     -0.2512
     56 C         -1.685848   2.542465   -2.222372 C.3        1 UNL1     0.0332
     57 C         -1.329976   3.662932   1.61135 C.3        1 UNL1     -0.0567
     58 C         5.75432   2.694786   3.951612 C.3        1 UNL1     0.0210
     59 C         0.772851   5.475351   2.391806 C.3        1 UNL1     0.0372
     60 C         2.963729   2.968997   3.139444 C.2        1 UNL1     -0.0208
     61 C         2.729149   2.947239   4.452167 C.2        1 UNL1     0.0882
     62 H         2.015043   -1.340961   4.884259 H        1 UNL1     0.0365
     63 H         3.457515   -2.24634   6.011109 H        1 UNL1     0.0576
     64 H         3.16144   -5.313007   5.942771 H        1 UNL1     0.0615
     65 H         5.285526   -3.409307   7.216365 H        1 UNL1     0.0622
     66 H         2.776617   4.431393   1.674341 H        1 UNL1     0.0645
     67 H         2.52736   3.211801   -0.043411 H        1 UNL1     0.0362
     68 H         0.37811   3.650169   -0.110746 H        1 UNL1     0.0741
     69 H         -1.541073   1.946528   0.553132 H        1 UNL1     0.0359
     70 H         -1.630351   0.911532   2.533112 H        1 UNL1     0.0600
     71 H         -0.991954   -1.021894   1.785432 H        1 UNL1     0.0348
     72 H         0.455477   -0.934642   3.742311 H        1 UNL1     0.0602
     73 H         3.888716   2.612003   2.759703 H        1 UNL1     0.0628
     74 H         1.786112   3.239987   4.915002 H        1 UNL1     0.1022
     75 H         5.859272   -7.383731   8.074102 H        1 UNL1     0.0279
     76 H         6.422317   -7.379932   6.450444 H        1 UNL1     0.0279
     77 H         7.503354   -6.956498   7.838738 H        1 UNL1     0.0279
     78 H         8.236016   -5.206891   5.953014 H        1 UNL1     0.1553
     79 H         6.829819   -5.106182   4.560644 H        1 UNL1     0.1484
     80 H         5.965709   -2.964559   1.542986 H        1 UNL1     0.0317
     81 H         7.40689   -2.700835   2.514259 H        1 UNL1     0.0317
     82 H         7.775942   -5.171752   2.742457 H        1 UNL1     0.0428
     83 H         7.714545   -4.648278   1.073952 H        1 UNL1     0.0428
     84 H         4.176987   -6.412799   2.647257 H        1 UNL1     0.0428
     85 H         5.531484   -6.321206   3.717805 H        1 UNL1     0.0428
     86 H         3.770664   -4.57168   3.969843 H        1 UNL1     0.0317
     87 H         3.982567   -3.988711   2.38315 H        1 UNL1     0.0317
     88 H         7.223055   -7.308459   1.622118 H        1 UNL1     0.0429
     89 H         5.554134   -7.64285   1.154016 H        1 UNL1     0.0429
     90 H         7.842962   -6.500124   -0.426579 H        1 UNL1     0.0308
     91 H         5.348772   -8.160816   -1.06286 H        1 UNL1     0.0233
     92 H         6.427377   -7.526598   -2.331668 H        1 UNL1     0.0233
     93 H         7.028604   -8.676099   -1.156179 H        1 UNL1     0.0233
     94 H         6.090682   -5.322455   -1.946969 H        1 UNL1     0.0233
     95 H         5.134221   -5.222889   -0.460498 H        1 UNL1     0.0233
     96 H         6.74469   -4.471107   -0.532637 H        1 UNL1     0.0233
     97 H         7.454937   3.612931   7.6172 H        1 UNL1     0.0280
     98 H         8.184437   2.803239   8.977132 H        1 UNL1     0.0280
     99 H         9.124127   3.031858   7.472324 H        1 UNL1     0.0280
     100 H         10.103877   0.898154   8.082694 H        1 UNL1     0.2922
     101 H         -0.584942   -1.85418   5.006874 H        1 UNL1     0.0236
     102 H         0.358343   -1.806604   6.547657 H        1 UNL1     0.0236
     103 H         -0.118212   -3.312214   5.825486 H        1 UNL1     0.0236
     104 H         -0.678904   -2.53115   2.161107 H        1 UNL1     0.2098
     105 H         1.624941   -0.134019   0.593629 H        1 UNL1     0.0234
     106 H         0.635749   -1.557518   0.162065 H        1 UNL1     0.0234
     107 H         0.0   0.0   -0.0 H        1 UNL1     0.0234
     108 H         0.966479   1.684656   3.305343 H        1 UNL1     0.2098
     109 H         3.995973   1.674442   0.849591 H        1 UNL1     0.0234
     110 H         2.694937   0.731539   1.643972 H        1 UNL1     0.0234
     111 H         2.814369   0.776462   -0.08014 H        1 UNL1     0.0234
     112 H         -2.069511   2.299467   -3.217913 H        1 UNL1     0.0342
     113 H         -2.499317   2.658708   -1.50781 H        1 UNL1     0.0342
     114 H         -1.161483   3.505644   -2.28939 H        1 UNL1     0.0342
     115 H         -1.575859   4.306165   0.755207 H        1 UNL1     0.0234
     116 H         -2.234031   3.559544   2.214711 H        1 UNL1     0.0234
     117 H         -0.623081   4.305164   2.164323 H        1 UNL1     0.0234
     118 H         5.278618   3.555417   3.449589 H        1 UNL1     0.0309
     119 H         6.792766   2.947385   4.188313 H        1 UNL1     0.0309
     120 H         5.799085   1.935583   3.163125 H        1 UNL1     0.0309
     121 H         0.141721   5.833202   3.204809 H        1 UNL1     0.0524
     122 H         1.710273   6.055457   2.419252 H        1 UNL1     0.0524
     123 H         0.283334   5.64136   1.436344 H        1 UNL1     0.0524
@<TRIPOS>BOND
     1     1     2    1
     2     1    42    1
     3     2     3    2
     4     3     4    1
     5     4     5    2
     6     5     7    1
     7     6    75    1
     8     6    76    1
     9     6    77    1
    10     7     9   am
    11     9    10    1
    12    10    11    2
    13    10    43    1
    14    11    14    1
    15    11    15    1
    16    12    13   ar
    17    12    27   ar
    18    12    43    1
    19    13    14    1
    20    13    30   ar
    21    14    17    2
    22    15    16    1
    23    16    17    1
    24    16    18    1
    25    16    22    1
    26    18    19    1
    27    19    20    1
    28    20    21    1
    29    21    22    1
    30    23    24    1
    31    23    88    1
    32    23    89    1
    33    24    25    1
    34    24    26    1
    35    24    90    1
    36    25    91    1
    37    25    92    1
    38    25    93    1
    39    26    94    1
    40    26    95    1
    41    26    96    1
    42    27    28   ar
    43    28    29   ar
    44    29    30   ar
    45    29    31    1
    46    30    33    1
    47    31    32    1
    48    32    33    1
    49    32    35    1
    50    34    97    1
    51    34    98    1
    52    34    99    1
    53    35    61    1
    54    36    37    1
    55    36    60    1
    56    37    38    1
    57    38    39    1
    58    39    40    1
    59    40    41    1
    60    41    42    1
    61    45   100    1
    62    47   101    1
    63    47   102    1
    64    47   103    1
    65    48   104    1
    66    49   105    1
    67    49   106    1
    68    49   107    1
    69    50   108    1
    70    51    59    1
    71    52   109    1
    72    52   110    1
    73    52   111    1
    74    53    54    1
    75    54    55    2
    76    54    56    1
    77    56   112    1
    78    56   113    1
    79    56   114    1
    80    57   115    1
    81    57   116    1
    82    57   117    1
    83    58   118    1
    84    58   119    1
    85    58   120    1
    86    59   121    1
    87    59   122    1
    88    59   123    1
    89    60    61    2
    90     1    47    1
    91     1    62    1
    92     2    63    1
    93     3    64    1
    94     4    65    1
    95     5     6    1
    96     7     8    2
    97     9    78    1
    98    15    79    1
    99    18    80    1
   100    18    81    1
   101    19    82    1
   102    19    83    1
   103    20    23    1
   104    21    84    1
   105    21    85    1
   106    22    86    1
   107    22    87    1
   108    27    45    1
   109    28    34    1
   110    32    58    1
   111    33    46    2
   112    36    51    1
   113    36    66    1
   114    37    52    1
   115    37    67    1
   116    38    53    1
   117    38    68    1
   118    42    48    1
   119    42    72    1
   120    43    44    2
   121    60    73    1
   122    61    74    1
   123    39    69    1
   124    39    57    1
   125    40    70    1
   126    40    50    1
   127    41    71    1
   128    41    49    1
