@<TRIPOS>MOLECULE
*****
 123 128 0 0 0
SMALL
GASTEIGER

@<TRIPOS>ATOM
     1 C         -4.240863   2.05497   1.60738 C.3        1 UNL1     0.0009
     2 C         -4.774681   3.744385   2.153228 C.2        1 UNL1     -0.0787
     3 C         -5.26615   4.634449   3.183903 C.2        1 UNL1     -0.0649
     4 C         -5.476302   6.312117   3.09659 C.2        1 UNL1     -0.0542
     5 C         -5.613721   7.505646   3.847377 C.2        1 UNL1     0.0115
     6 C         -5.826743   8.072874   5.277831 C.3        1 UNL1     -0.0348
     7 C         -5.36191   8.914349   3.119959 C.2        1 UNL1     0.2441
     8 O         -6.271262   9.647211   2.755929 O.2        1 UNL1     -0.2702
     9 N         -4.032866   9.370328   3.163298 N.am        1 UNL1     -0.2772
     10 C         -3.320643   8.876416   2.094603 C.2        1 UNL1     0.1049
     11 C         -2.837099   7.655123   2.231902 C.2        1 UNL1     0.0801
     12 C         -3.405927   8.604787   -0.390609 C.ar        1 UNL1     0.0753
     13 C         -3.081941   7.227788   -0.17263 C.ar        1 UNL1     0.0305
     14 C         -2.658046   6.739632   1.13774 C.2        1 UNL1     0.0924
     15 N         -2.743329   6.881221   3.326804 N.pl3        1 UNL1     -0.3170
     16 C         -1.983661   5.711255   2.974187 C.3        1 UNL1     0.1275
     17 N         -2.229328   5.532619   1.495856 N.2        1 UNL1     -0.2557
     18 C         -0.507778   6.070174   3.11788 C.3        1 UNL1     0.0016
     19 C         -0.265138   6.573634   4.531827 C.3        1 UNL1     0.0026
     20 N         -0.644047   5.528034   5.472134 N.3        1 UNL1     -0.3018
     21 C         -2.031679   5.071823   5.368614 C.3        1 UNL1     0.0026
     22 C         -2.25197   4.566176   3.941839 C.3        1 UNL1     0.0016
     23 C         -0.177423   5.78554   6.819946 C.3        1 UNL1     0.0012
     24 C         0.864291   6.915398   6.822628 C.3        1 UNL1     -0.0339
     25 C         0.281703   8.216076   7.399588 C.3        1 UNL1     -0.0615
     26 C         2.106888   6.476296   7.57756 C.3        1 UNL1     -0.0615
     27 C         -3.691744   9.085824   -1.66616 C.ar        1 UNL1     0.1347
     28 C         -3.646302   8.296895   -2.801755 C.ar        1 UNL1     0.0342
     29 C         -3.373045   6.934381   -2.556705 C.ar        1 UNL1     0.1435
     30 C         -3.120296   6.431049   -1.279992 C.ar        1 UNL1     0.0774
     31 O         -3.186457   6.059817   -3.56929 O.3        1 UNL1     -0.4436
     32 C         -2.487113   4.95745   -2.972148 C.3        1 UNL1     0.3143
     33 C         -2.818508   5.031295   -1.495348 C.2        1 UNL1     0.2504
     34 C         -3.692669   8.790804   -4.220911 C.3        1 UNL1     -0.0327
     35 O         -3.081696   3.753955   -3.473468 O.2        1 UNL1     -0.4528
     36 C         -0.311302   1.159343   -3.504954 C.3        1 UNL1     0.0854
     37 C         0.590887   0.650655   -2.315494 C.3        1 UNL1     0.0236
     38 C         0.576589   -0.93663   -2.087313 C.3        1 UNL1     0.1131
     39 C         -0.803604   -1.700968   -1.972745 C.3        1 UNL1     0.0200
     40 C         -2.04775   -1.066213   -1.060811 C.3        1 UNL1     0.0661
     41 C         -1.923911   -0.50549   0.535392 C.3        1 UNL1     0.0091
     42 C         -2.824461   0.840581   1.397079 C.3        1 UNL1     0.0661
     43 C         -3.339976   9.522465   0.773769 C.2        1 UNL1     0.2131
     44 O         -3.20336   10.728292   0.673496 O.2        1 UNL1     -0.2851
     45 O         -4.042161   10.429106   -1.785493 O.3        1 UNL1     -0.5056
     46 O         -2.848481   4.133165   -0.68398 O.2        1 UNL1     -0.2836
     47 C         -5.476131   1.133817   1.418774 C.3        1 UNL1     -0.0566
     48 O         -3.128379   0.023846   2.596951 O.3        1 UNL1     -0.3909
     49 C         -0.460811   -0.353016   0.886935 C.3        1 UNL1     -0.0577
     50 O         -2.825332   -0.169959   -1.828808 O.3        1 UNL1     -0.3910
     51 O         -1.145246   0.19258   -4.102731 O.3        1 UNL1     -0.3753
     52 C         0.605731   1.661766   -1.122858 C.3        1 UNL1     -0.0564
     53 O         1.686804   -1.426444   -1.204232 O.3        1 UNL1     -0.4608
     54 C         2.762722   -0.683667   -0.793608 C.2        1 UNL1     0.3042
     55 O         3.500236   -0.904607   0.16613 O.2        1 UNL1     -0.2512
     56 C         3.060184   0.488021   -1.685446 C.3        1 UNL1     0.0332
     57 C         -1.159604   -2.273643   -3.423083 C.3        1 UNL1     -0.0567
     58 C         -0.978878   5.242968   -3.159864 C.3        1 UNL1     0.0210
     59 C         -2.469622   0.638831   -4.390399 C.3        1 UNL1     0.0372
     60 C         -1.172527   2.330222   -3.184808 C.2        1 UNL1     -0.0208
     61 C         -2.456055   2.561282   -3.463938 C.2        1 UNL1     0.0882
     62 H         -4.005776   2.469364   0.619593 H        1 UNL1     0.0365
     63 H         -4.710375   4.292558   1.210974 H        1 UNL1     0.0576
     64 H         -5.398737   4.298586   4.214788 H        1 UNL1     0.0615
     65 H         -5.403677   6.528556   2.027309 H        1 UNL1     0.0622
     66 H         0.403238   1.509241   -4.263276 H        1 UNL1     0.0645
     67 H         1.622559   0.811608   -2.673693 H        1 UNL1     0.0362
     68 H         1.012837   -1.263848   -3.043419 H        1 UNL1     0.0741
     69 H         -0.632003   -2.660878   -1.504199 H        1 UNL1     0.0359
     70 H         -2.684927   -1.965104   -0.955641 H        1 UNL1     0.0600
     71 H         -2.184141   -1.430721   1.086015 H        1 UNL1     0.0348
     72 H         -3.434051   0.581387   0.519279 H        1 UNL1     0.0602
     73 H         -0.573282   3.100724   -2.767099 H        1 UNL1     0.0628
     74 H         -3.150915   1.808689   -3.838116 H        1 UNL1     0.1022
     75 H         -5.818998   7.248859   6.03147 H        1 UNL1     0.0279
     76 H         -5.056069   8.741811   5.654201 H        1 UNL1     0.0279
     77 H         -6.833521   8.490889   5.423987 H        1 UNL1     0.0279
     78 H         -3.583474   9.034258   4.012522 H        1 UNL1     0.1553
     79 H         -2.793516   7.234638   4.264627 H        1 UNL1     0.1484
     80 H         0.098845   5.18313   2.898955 H        1 UNL1     0.0317
     81 H         -0.218447   6.835324   2.389536 H        1 UNL1     0.0317
     82 H         -0.815283   7.504759   4.732472 H        1 UNL1     0.0428
     83 H         0.792772   6.825546   4.611925 H        1 UNL1     0.0428
     84 H         -2.267966   4.232493   6.030056 H        1 UNL1     0.0428
     85 H         -2.742693   5.85474   5.666638 H        1 UNL1     0.0428
     86 H         -3.229385   4.120479   3.940277 H        1 UNL1     0.0317
     87 H         -1.586259   3.718686   3.73767 H        1 UNL1     0.0317
     88 H         -1.03751   6.101727   7.42457 H        1 UNL1     0.0429
     89 H         0.224389   4.875369   7.283531 H        1 UNL1     0.0429
     90 H         1.190717   7.105435   5.793286 H        1 UNL1     0.0308
     91 H         0.262811   9.011105   6.648139 H        1 UNL1     0.0233
     92 H         -0.731438   8.052677   7.774363 H        1 UNL1     0.0233
     93 H         0.864392   8.594286   8.248272 H        1 UNL1     0.0233
     94 H         2.854132   6.083986   6.879308 H        1 UNL1     0.0233
     95 H         2.548383   7.33009   8.099174 H        1 UNL1     0.0233
     96 H         1.874879   5.697205   8.309105 H        1 UNL1     0.0233
     97 H         -4.541305   8.387357   -4.765226 H        1 UNL1     0.0280
     98 H         -3.791888   9.882763   -4.276022 H        1 UNL1     0.0280
     99 H         -2.771081   8.491157   -4.746251 H        1 UNL1     0.0280
     100 H         -3.703344   10.855425   -2.553007 H        1 UNL1     0.2922
     101 H         -5.167736   0.194529   0.960205 H        1 UNL1     0.0236
     102 H         -6.28655   1.610838   0.868632 H        1 UNL1     0.0236
     103 H         -5.925097   0.840637   2.382448 H        1 UNL1     0.0236
     104 H         -2.64997   0.419214   3.351788 H        1 UNL1     0.2098
     105 H         -0.261172   0.368298   1.675391 H        1 UNL1     0.0234
     106 H         0.058422   -1.289296   1.091148 H        1 UNL1     0.0234
     107 H         0.0   0.0   0.0 H        1 UNL1     0.0234
     108 H         -3.705954   -0.575922   -1.944848 H        1 UNL1     0.2098
     109 H         1.401972   2.412446   -1.223818 H        1 UNL1     0.0234
     110 H         -0.355546   2.165084   -0.973324 H        1 UNL1     0.0234
     111 H         0.793269   1.156385   -0.16611 H        1 UNL1     0.0234
     112 H         4.064869   0.868412   -1.477464 H        1 UNL1     0.0342
     113 H         2.946988   0.239457   -2.739603 H        1 UNL1     0.0342
     114 H         2.342747   1.287017   -1.452947 H        1 UNL1     0.0342
     115 H         -0.787222   -3.298184   -3.560326 H        1 UNL1     0.0234
     116 H         -2.227973   -2.27969   -3.64803 H        1 UNL1     0.0234
     117 H         -0.641869   -1.74708   -4.243219 H        1 UNL1     0.0234
     118 H         -0.377573   4.317017   -3.152528 H        1 UNL1     0.0309
     119 H         -0.758506   5.805895   -4.072416 H        1 UNL1     0.0309
     120 H         -0.555443   5.825632   -2.334448 H        1 UNL1     0.0309
     121 H         -2.681738   1.484668   -3.737005 H        1 UNL1     0.0524
     122 H         -2.576674   0.988078   -5.430881 H        1 UNL1     0.0524
     123 H         -3.182813   -0.160885   -4.211774 H        1 UNL1     0.0524
@<TRIPOS>BOND
     1     1     2    1
     2     1    42    1
     3     2     3    2
     4     3     4    1
     5     4     5    2
     6     5     7    1
     7     6    75    1
     8     6    76    1
     9     6    77    1
    10     7     9   am
    11     9    10    1
    12    10    11    2
    13    10    43    1
    14    11    14    1
    15    11    15    1
    16    12    13   ar
    17    12    27   ar
    18    12    43    1
    19    13    14    1
    20    13    30   ar
    21    14    17    2
    22    15    16    1
    23    16    17    1
    24    16    18    1
    25    16    22    1
    26    18    19    1
    27    19    20    1
    28    20    21    1
    29    21    22    1
    30    23    24    1
    31    23    88    1
    32    23    89    1
    33    24    25    1
    34    24    26    1
    35    24    90    1
    36    25    91    1
    37    25    92    1
    38    25    93    1
    39    26    94    1
    40    26    95    1
    41    26    96    1
    42    27    28   ar
    43    28    29   ar
    44    29    30   ar
    45    29    31    1
    46    30    33    1
    47    31    32    1
    48    32    33    1
    49    32    35    1
    50    34    97    1
    51    34    98    1
    52    34    99    1
    53    35    61    1
    54    36    37    1
    55    36    60    1
    56    37    38    1
    57    38    39    1
    58    39    40    1
    59    40    41    1
    60    41    42    1
    61    45   100    1
    62    47   101    1
    63    47   102    1
    64    47   103    1
    65    48   104    1
    66    49   105    1
    67    49   106    1
    68    49   107    1
    69    50   108    1
    70    51    59    1
    71    52   109    1
    72    52   110    1
    73    52   111    1
    74    53    54    1
    75    54    55    2
    76    54    56    1
    77    56   112    1
    78    56   113    1
    79    56   114    1
    80    57   115    1
    81    57   116    1
    82    57   117    1
    83    58   118    1
    84    58   119    1
    85    58   120    1
    86    59   121    1
    87    59   122    1
    88    59   123    1
    89    60    61    2
    90     1    47    1
    91     1    62    1
    92     2    63    1
    93     3    64    1
    94     4    65    1
    95     5     6    1
    96     7     8    2
    97     9    78    1
    98    15    79    1
    99    18    80    1
   100    18    81    1
   101    19    82    1
   102    19    83    1
   103    20    23    1
   104    21    84    1
   105    21    85    1
   106    22    86    1
   107    22    87    1
   108    27    45    1
   109    28    34    1
   110    32    58    1
   111    33    46    2
   112    36    51    1
   113    36    66    1
   114    37    52    1
   115    37    67    1
   116    38    53    1
   117    38    68    1
   118    42    48    1
   119    42    72    1
   120    43    44    2
   121    60    73    1
   122    61    74    1
   123    39    69    1
   124    39    57    1
   125    40    70    1
   126    40    50    1
   127    41    71    1
   128    41    49    1
