@<TRIPOS>MOLECULE
*****
 123 128 0 0 0
SMALL
GASTEIGER

@<TRIPOS>ATOM
     1 C         5.167578   1.747659   0.491014 C.3        1 UNL1     0.0009
     2 C         6.604258   2.553829   -0.359327 C.2        1 UNL1     -0.0787
     3 C         7.885996   2.455661   -1.025326 C.2        1 UNL1     -0.0649
     4 C         8.763532   3.690913   -1.780603 C.2        1 UNL1     -0.0542
     5 C         9.78344   3.983729   -2.719286 C.2        1 UNL1     0.0115
     6 C         10.911365   3.358408   -3.585358 C.3        1 UNL1     -0.0348
     7 C         9.878939   5.467199   -3.325244 C.2        1 UNL1     0.2441
     8 O         10.703042   6.288551   -2.947409 O.2        1 UNL1     -0.2702
     9 N         9.128541   5.674748   -4.495704 N.am        1 UNL1     -0.2772
     10 C         7.845954   6.061545   -4.181567 C.2        1 UNL1     0.1049
     11 C         7.000044   5.090175   -3.889848 C.2        1 UNL1     0.0801
     12 C         6.548115   7.667897   -2.76998 C.ar        1 UNL1     0.0753
     13 C         5.788932   6.53995   -2.322781 C.ar        1 UNL1     0.0305
     14 C         5.905506   5.234474   -2.968685 C.2        1 UNL1     0.0924
     15 N         7.122391   3.761236   -4.049465 N.pl3        1 UNL1     -0.3170
     16 C         5.85248   3.162179   -3.735284 C.3        1 UNL1     0.1275
     17 N         5.216435   4.117157   -2.754883 N.2        1 UNL1     -0.2557
     18 C         4.999411   3.221886   -4.998775 C.3        1 UNL1     0.0016
     19 C         5.75396   2.538084   -6.127784 C.3        1 UNL1     0.0026
     20 N         6.02392   1.159787   -5.742498 N.3        1 UNL1     -0.3018
     21 C         6.787474   0.998782   -4.503373 C.3        1 UNL1     0.0026
     22 C         6.009061   1.689019   -3.381972 C.3        1 UNL1     0.0016
     23 C         6.468073   0.340589   -6.852582 C.3        1 UNL1     0.0012
     24 C         5.312402   0.091698   -7.834537 C.3        1 UNL1     -0.0339
     25 C         5.348076   1.084285   -9.00823 C.3        1 UNL1     -0.0615
     26 C         5.34115   -1.347622   -8.318596 C.3        1 UNL1     -0.0615
     27 C         6.343786   8.935424   -2.229846 C.ar        1 UNL1     0.1347
     28 C         5.384954   9.204784   -1.269567 C.ar        1 UNL1     0.0342
     29 C         4.683269   8.070288   -0.809434 C.ar        1 UNL1     0.1435
     30 C         4.902384   6.788412   -1.315401 C.ar        1 UNL1     0.0774
     31 O         3.642457   8.183723   0.044292 O.3        1 UNL1     -0.4436
     32 C         2.920526   6.951089   -0.098199 C.3        1 UNL1     0.3143
     33 C         3.933542   5.957999   -0.630912 C.2        1 UNL1     0.2504
     34 C         4.938448   10.570804   -0.828294 C.3        1 UNL1     -0.0327
     35 O         2.560057   6.513961   1.217944 O.2        1 UNL1     -0.4528
     36 C         -0.683419   4.582519   0.821099 C.3        1 UNL1     0.0854
     37 C         -0.989126   3.322326   -0.076666 C.3        1 UNL1     0.0236
     38 C         -1.589763   2.061098   0.710915 C.3        1 UNL1     0.1131
     39 C         -0.863855   1.529546   2.011983 C.3        1 UNL1     0.0200
     40 C         0.797318   1.38368   2.05278 C.3        1 UNL1     0.0661
     41 C         1.756323   0.615109   0.883498 C.3        1 UNL1     0.0091
     42 C         3.463869   0.977562   0.319302 C.3        1 UNL1     0.0661
     43 C         7.497904   7.460436   -3.891194 C.2        1 UNL1     0.2131
     44 O         7.897815   8.358707   -4.609468 O.2        1 UNL1     -0.2851
     45 O         7.156155   9.970551   -2.688109 O.3        1 UNL1     -0.5056
     46 O         3.949335   4.754413   -0.500582 O.2        1 UNL1     -0.2836
     47 C         5.564139   1.317579   1.928982 C.3        1 UNL1     -0.0566
     48 O         3.912188   -0.433656   0.400482 O.3        1 UNL1     -0.3909
     49 C         0.921853   0.383129   -0.356397 C.3        1 UNL1     -0.0577
     50 O         1.397818   2.601287   2.445916 O.3        1 UNL1     -0.3910
     51 O         -0.807273   4.392357   2.212476 O.3        1 UNL1     -0.3753
     52 C         0.055076   3.162085   -1.229451 C.3        1 UNL1     -0.0564
     53 O         -2.192733   1.022556   -0.189187 O.3        1 UNL1     -0.4608
     54 C         -2.427319   -0.284277   0.150059 C.2        1 UNL1     0.3042
     55 O         -1.858491   -1.283352   -0.288257 O.2        1 UNL1     -0.2512
     56 C         -3.46716   -0.450119   1.22148 C.3        1 UNL1     0.0332
     57 C         -1.584513   2.198213   3.273613 C.3        1 UNL1     -0.0567
     58 C         1.845165   7.196775   -1.182065 C.3        1 UNL1     0.0210
     59 C         -1.120106   5.57115   2.953047 C.3        1 UNL1     0.0372
     60 C         0.645649   5.21144   0.590451 C.2        1 UNL1     -0.0208
     61 C         1.558836   5.646187   1.459836 C.2        1 UNL1     0.0882
     62 H         4.691859   2.731888   0.578732 H        1 UNL1     0.0365
     63 H         6.338228   3.60764   -0.253588 H        1 UNL1     0.0576
     64 H         8.343427   1.488806   -1.246814 H        1 UNL1     0.0615
     65 H         8.276689   4.606274   -1.433357 H        1 UNL1     0.0622
     66 H         -1.427991   5.329298   0.511293 H        1 UNL1     0.0645
     67 H         -1.854737   3.632074   -0.687675 H        1 UNL1     0.0362
     68 H         -2.536682   2.498025   1.062998 H        1 UNL1     0.0741
     69 H         -1.195528   0.518439   2.207086 H        1 UNL1     0.0359
     70 H         0.909146   0.723011   2.933729 H        1 UNL1     0.0600
     71 H         1.799799   -0.406218   1.310064 H        1 UNL1     0.0348
     72 H         3.358274   1.465434   1.299172 H        1 UNL1     0.0602
     73 H         0.763374   5.409039   -0.446054 H        1 UNL1     0.0628
     74 H         1.541465   5.435142   2.5296 H        1 UNL1     0.1022
     75 H         10.955669   2.253066   -3.432746 H        1 UNL1     0.0279
     76 H         10.797531   3.441605   -4.663871 H        1 UNL1     0.0279
     77 H         11.916562   3.662806   -3.258831 H        1 UNL1     0.0279
     78 H         9.066271   4.804999   -5.02081 H        1 UNL1     0.1553
     79 H         7.787457   3.333341   -4.667143 H        1 UNL1     0.1484
     80 H         4.038076   2.731063   -4.804622 H        1 UNL1     0.0317
     81 H         4.772943   4.258778   -5.269362 H        1 UNL1     0.0317
     82 H         6.684672   3.0693   -6.375768 H        1 UNL1     0.0428
     83 H         5.128638   2.593663   -7.019374 H        1 UNL1     0.0428
     84 H         6.907661   -0.044303   -4.1946 H        1 UNL1     0.0428
     85 H         7.817615   1.366658   -4.607268 H        1 UNL1     0.0428
     86 H         6.525621   1.438235   -2.474083 H        1 UNL1     0.0317
     87 H         5.029552   1.211522   -3.256854 H        1 UNL1     0.0317
     88 H         7.264131   0.882423   -7.37984 H        1 UNL1     0.0429
     89 H         6.900561   -0.60539   -6.502079 H        1 UNL1     0.0429
     90 H         4.359498   0.210764   -7.305375 H        1 UNL1     0.0308
     91 H         6.301128   1.033518   -9.543222 H        1 UNL1     0.0233
     92 H         4.533006   0.884712   -9.707829 H        1 UNL1     0.0233
     93 H         5.222208   2.123302   -8.680455 H        1 UNL1     0.0233
     94 H         4.646468   -1.478662   -9.155304 H        1 UNL1     0.0233
     95 H         6.344538   -1.603587   -8.670246 H        1 UNL1     0.0233
     96 H         5.05825   -2.042072   -7.522559 H        1 UNL1     0.0233
     97 H         4.138955   10.52105   -0.095105 H        1 UNL1     0.0280
     98 H         5.74898   11.137044   -0.35115 H        1 UNL1     0.0280
     99 H         4.573508   11.139091   -1.699479 H        1 UNL1     0.0280
     100 H         6.689213   10.721886   -3.009174 H        1 UNL1     0.2922
     101 H         4.701347   0.883922   2.434145 H        1 UNL1     0.0236
     102 H         6.015187   2.122636   2.508138 H        1 UNL1     0.0236
     103 H         6.320238   0.514768   1.927446 H        1 UNL1     0.0236
     104 H         4.33156   -0.560122   1.27404 H        1 UNL1     0.2098
     105 H         0.709257   1.2822   -0.929357 H        1 UNL1     0.0234
     106 H         1.290962   -0.404732   -1.012873 H        1 UNL1     0.0234
     107 H         0.0   -0.0   0.0 H        1 UNL1     0.0234
     108 H         1.199848   3.259635   1.752263 H        1 UNL1     0.2098
     109 H         1.079968   3.048286   -0.849505 H        1 UNL1     0.0234
     110 H         -0.177658   2.335265   -1.909119 H        1 UNL1     0.0234
     111 H         0.076298   4.045122   -1.881939 H        1 UNL1     0.0234
     112 H         -3.599674   -1.511919   1.450318 H        1 UNL1     0.0342
     113 H         -3.223751   0.115687   2.11951 H        1 UNL1     0.0342
     114 H         -4.421811   -0.067143   0.835301 H        1 UNL1     0.0342
     115 H         -2.654175   1.950121   3.31185 H        1 UNL1     0.0234
     116 H         -1.14791   1.918037   4.234305 H        1 UNL1     0.0234
     117 H         -1.622918   3.300093   3.225377 H        1 UNL1     0.0234
     118 H         0.944266   7.683703   -0.769407 H        1 UNL1     0.0309
     119 H         2.21447   7.784985   -2.02813 H        1 UNL1     0.0309
     120 H         1.456336   6.265035   -1.607247 H        1 UNL1     0.0309
     121 H         -0.298956   6.274213   2.816037 H        1 UNL1     0.0524
     122 H         -2.039886   6.060488   2.591673 H        1 UNL1     0.0524
     123 H         -1.237906   5.333065   4.006391 H        1 UNL1     0.0524
@<TRIPOS>BOND
     1     1     2    1
     2     1    42    1
     3     2     3    2
     4     3     4    1
     5     4     5    2
     6     5     7    1
     7     6    75    1
     8     6    76    1
     9     6    77    1
    10     7     9   am
    11     9    10    1
    12    10    11    2
    13    10    43    1
    14    11    14    1
    15    11    15    1
    16    12    13   ar
    17    12    27   ar
    18    12    43    1
    19    13    14    1
    20    13    30   ar
    21    14    17    2
    22    15    16    1
    23    16    17    1
    24    16    18    1
    25    16    22    1
    26    18    19    1
    27    19    20    1
    28    20    21    1
    29    21    22    1
    30    23    24    1
    31    23    88    1
    32    23    89    1
    33    24    25    1
    34    24    26    1
    35    24    90    1
    36    25    91    1
    37    25    92    1
    38    25    93    1
    39    26    94    1
    40    26    95    1
    41    26    96    1
    42    27    28   ar
    43    28    29   ar
    44    29    30   ar
    45    29    31    1
    46    30    33    1
    47    31    32    1
    48    32    33    1
    49    32    35    1
    50    34    97    1
    51    34    98    1
    52    34    99    1
    53    35    61    1
    54    36    37    1
    55    36    60    1
    56    37    38    1
    57    38    39    1
    58    39    40    1
    59    40    41    1
    60    41    42    1
    61    45   100    1
    62    47   101    1
    63    47   102    1
    64    47   103    1
    65    48   104    1
    66    49   105    1
    67    49   106    1
    68    49   107    1
    69    50   108    1
    70    51    59    1
    71    52   109    1
    72    52   110    1
    73    52   111    1
    74    53    54    1
    75    54    55    2
    76    54    56    1
    77    56   112    1
    78    56   113    1
    79    56   114    1
    80    57   115    1
    81    57   116    1
    82    57   117    1
    83    58   118    1
    84    58   119    1
    85    58   120    1
    86    59   121    1
    87    59   122    1
    88    59   123    1
    89    60    61    2
    90     1    47    1
    91     1    62    1
    92     2    63    1
    93     3    64    1
    94     4    65    1
    95     5     6    1
    96     7     8    2
    97     9    78    1
    98    15    79    1
    99    18    80    1
   100    18    81    1
   101    19    82    1
   102    19    83    1
   103    20    23    1
   104    21    84    1
   105    21    85    1
   106    22    86    1
   107    22    87    1
   108    27    45    1
   109    28    34    1
   110    32    58    1
   111    33    46    2
   112    36    51    1
   113    36    66    1
   114    37    52    1
   115    37    67    1
   116    38    53    1
   117    38    68    1
   118    42    48    1
   119    42    72    1
   120    43    44    2
   121    60    73    1
   122    61    74    1
   123    39    69    1
   124    39    57    1
   125    40    70    1
   126    40    50    1
   127    41    71    1
   128    41    49    1
