@<TRIPOS>MOLECULE
*****
 123 128 0 0 0
SMALL
GASTEIGER

@<TRIPOS>ATOM
     1 C         4.597492   0.826219   2.823544 C.3        1 UNL1     0.0009
     2 C         6.446793   0.900864   2.716063 C.2        1 UNL1     -0.0787
     3 C         7.745118   0.319766   2.985735 C.2        1 UNL1     -0.0649
     4 C         9.260523   0.876341   2.475705 C.2        1 UNL1     -0.0542
     5 C         10.613583   0.520213   2.253265 C.2        1 UNL1     0.0115
     6 C         11.673546   -0.592737   2.479413 C.3        1 UNL1     -0.0348
     7 C         11.520937   1.459947   1.320207 C.2        1 UNL1     0.2441
     8 O         12.339588   2.250956   1.768136 O.2        1 UNL1     -0.2702
     9 N         11.500592   1.129257   -0.045949 N.am        1 UNL1     -0.2772
     10 C         10.465334   1.775837   -0.681163 C.2        1 UNL1     0.1049
     11 C         9.278906   1.202569   -0.591864 C.2        1 UNL1     0.0801
     12 C         9.401538   4.02299   -0.956796 C.ar        1 UNL1     0.0753
     13 C         8.158174   3.385529   -0.646478 C.ar        1 UNL1     0.0305
     14 C         8.039022   1.930575   -0.583537 C.2        1 UNL1     0.0924
     15 N         8.94278   -0.024187   -0.157565 N.pl3        1 UNL1     -0.3170
     16 C         7.542727   -0.217486   -0.427273 C.3        1 UNL1     0.1275
     17 N         6.958937   1.174136   -0.40992 N.2        1 UNL1     -0.2557
     18 C         7.42318   -0.708949   -1.866674 C.3        1 UNL1     0.0016
     19 C         8.271717   -1.960513   -2.0253 C.3        1 UNL1     0.0026
     20 N         7.798684   -2.968446   -1.086504 N.3        1 UNL1     -0.3018
     21 C         7.817416   -2.564644   0.320963 C.3        1 UNL1     0.0026
     22 C         6.955213   -1.308582   0.4581 C.3        1 UNL1     0.0016
     23 C         8.334528   -4.287493   -1.357848 C.3        1 UNL1     0.0012
     24 C         7.727845   -4.860289   -2.648428 C.3        1 UNL1     -0.0339
     25 C         7.557911   -6.385919   -2.561079 C.3        1 UNL1     -0.0615
     26 C         6.411707   -4.167998   -2.957124 C.3        1 UNL1     -0.0615
     27 C         9.481028   5.40228   -1.133887 C.ar        1 UNL1     0.1347
     28 C         8.382181   6.240053   -1.065176 C.ar        1 UNL1     0.0342
     29 C         7.177513   5.596607   -0.710328 C.ar        1 UNL1     0.1435
     30 C         7.089663   4.220792   -0.49438 C.ar        1 UNL1     0.0774
     31 O         5.999162   6.257285   -0.710198 O.3        1 UNL1     -0.4436
     32 C         5.004306   5.224469   -0.776735 C.3        1 UNL1     0.3143
     33 C         5.684871   3.983427   -0.235568 C.2        1 UNL1     0.2504
     34 C         8.345082   7.682133   -1.488414 C.3        1 UNL1     -0.0327
     35 O         3.968479   5.570374   0.150985 O.2        1 UNL1     -0.4528
     36 C         0.764577   4.121595   -1.27875 C.3        1 UNL1     0.0854
     37 C         0.428788   2.627917   -1.657821 C.3        1 UNL1     0.0236
     38 C         -0.885029   2.031911   -0.957532 C.3        1 UNL1     0.1131
     39 C         -1.065057   2.15691   0.609068 C.3        1 UNL1     0.0200
     40 C         0.215043   1.850538   1.633723 C.3        1 UNL1     0.0661
     41 C         1.215526   0.481267   1.592004 C.3        1 UNL1     0.0091
     42 C         2.9915   0.291882   2.010873 C.3        1 UNL1     0.0661
     43 C         10.586979   3.156603   -1.172122 C.2        1 UNL1     0.2131
     44 O         11.568831   3.503979   -1.80302 O.2        1 UNL1     -0.2851
     45 O         10.73725   5.948642   -1.388508 O.3        1 UNL1     -0.5056
     46 O         5.182772   3.024685   0.307168 O.2        1 UNL1     -0.2836
     47 C         4.127841   1.147856   4.267829 C.3        1 UNL1     -0.0566
     48 O         2.784306   -0.92149   2.837865 O.3        1 UNL1     -0.3909
     49 C         0.989827   -0.248441   0.2866 C.3        1 UNL1     -0.0577
     50 O         0.995587   3.013698   1.822226 O.3        1 UNL1     -0.3910
     51 O         -0.017415   4.687071   -0.251055 O.3        1 UNL1     -0.3753
     52 C         1.72293   1.773978   -1.860143 C.3        1 UNL1     -0.0564
     53 O         -1.377658   0.761888   -1.587361 O.3        1 UNL1     -0.4608
     54 C         -1.918023   -0.302152   -0.913748 C.2        1 UNL1     0.3042
     55 O         -1.369785   -1.369026   -0.63979 O.2        1 UNL1     -0.2512
     56 C         -3.320304   -0.059869   -0.432477 C.3        1 UNL1     0.0332
     57 C         -1.949762   3.459327   0.890462 C.3        1 UNL1     -0.0567
     58 C         4.695822   5.010275   -2.276897 C.3        1 UNL1     0.0210
     59 C         0.704993   5.03597   0.928887 C.3        1 UNL1     0.0372
     60 C         2.187644   4.375801   -0.924604 C.2        1 UNL1     -0.0208
     61 C         2.716727   5.0787   0.077768 C.2        1 UNL1     0.0882
     62 H         4.546005   1.766274   2.261087 H        1 UNL1     0.0365
     63 H         6.584742   1.88366   2.260485 H        1 UNL1     0.0576
     64 H         7.846838   -0.671732   3.432603 H        1 UNL1     0.0615
     65 H         9.060227   1.892005   2.123865 H        1 UNL1     0.0622
     66 H         0.577612   4.689182   -2.201212 H        1 UNL1     0.0645
     67 H         0.108698   2.684526   -2.712761 H        1 UNL1     0.0362
     68 H         -1.644328   2.699478   -1.392666 H        1 UNL1     0.0741
     69 H         -1.805358   1.437501   0.932817 H        1 UNL1     0.0359
     70 H         -0.330636   1.725863   2.58858 H        1 UNL1     0.0600
     71 H         0.675726   -0.174275   2.303228 H        1 UNL1     0.0348
     72 H         2.662402   1.221124   2.498231 H        1 UNL1     0.0602
     73 H         2.812216   3.999004   -1.696085 H        1 UNL1     0.0628
     74 H         2.154252   5.448808   0.935603 H        1 UNL1     0.1022
     75 H         11.649024   -0.94823   3.537741 H        1 UNL1     0.0279
     76 H         11.535816   -1.514888   1.91929 H        1 UNL1     0.0279
     77 H         12.705236   -0.219943   2.399784 H        1 UNL1     0.0279
     78 H         11.348665   0.128533   -0.153407 H        1 UNL1     0.1553
     79 H         9.592071   -0.785514   -0.081834 H        1 UNL1     0.1484
     80 H         6.368236   -0.909379   -2.089579 H        1 UNL1     0.0317
     81 H         7.751569   0.062036   -2.571936 H        1 UNL1     0.0317
     82 H         9.340632   -1.749535   -1.874233 H        1 UNL1     0.0428
     83 H         8.173451   -2.293026   -3.059142 H        1 UNL1     0.0428
     84 H         7.383372   -3.308352   0.996474 H        1 UNL1     0.0428
     85 H         8.842154   -2.430993   0.694283 H        1 UNL1     0.0428
     86 H         6.883461   -1.120422   1.513294 H        1 UNL1     0.0317
     87 H         5.920734   -1.530785   0.169007 H        1 UNL1     0.0317
     88 H         9.419956   -4.193932   -1.49345 H        1 UNL1     0.0429
     89 H         8.173624   -4.965472   -0.509774 H        1 UNL1     0.0429
     90 H         8.391781   -4.630529   -3.49022 H        1 UNL1     0.0308
     91 H         7.108765   -6.68218   -1.608399 H        1 UNL1     0.0233
     92 H         6.93542   -6.752811   -3.380532 H        1 UNL1     0.0233
     93 H         8.513658   -6.917854   -2.641258 H        1 UNL1     0.0233
     94 H         5.798212   -4.797251   -3.610958 H        1 UNL1     0.0233
     95 H         5.853292   -3.997572   -2.032412 H        1 UNL1     0.0233
     96 H         6.573101   -3.20734   -3.454172 H        1 UNL1     0.0233
     97 H         7.602279   7.861335   -2.260011 H        1 UNL1     0.0280
     98 H         8.082976   8.350558   -0.657894 H        1 UNL1     0.0280
     99 H         9.331325   7.97637   -1.883186 H        1 UNL1     0.0280
     100 H         11.413914   5.666209   -0.79861 H        1 UNL1     0.2922
     101 H         3.720184   2.157831   4.30554 H        1 UNL1     0.0236
     102 H         4.904532   0.992114   5.015813 H        1 UNL1     0.0236
     103 H         3.295891   0.498158   4.587118 H        1 UNL1     0.0236
     104 H         1.848778   -1.187281   2.742409 H        1 UNL1     0.2098
     105 H         1.655128   0.054409   -0.518054 H        1 UNL1     0.0234
     106 H         0.968121   -1.334941   0.370103 H        1 UNL1     0.0234
     107 H         0.0   0.0   0.0 H        1 UNL1     0.0234
     108 H         1.156019   3.103104   2.781411 H        1 UNL1     0.2098
     109 H         1.82883   0.991653   -1.095641 H        1 UNL1     0.0234
     110 H         1.790332   1.324112   -2.856547 H        1 UNL1     0.0234
     111 H         2.629596   2.388855   -1.783793 H        1 UNL1     0.0234
     112 H         -3.683242   -0.936326   0.112908 H        1 UNL1     0.0342
     113 H         -3.394154   0.838605   0.17837 H        1 UNL1     0.0342
     114 H         -3.965019   0.080934   -1.310931 H        1 UNL1     0.0342
     115 H         -2.604442   3.327647   1.762954 H        1 UNL1     0.0234
     116 H         -1.364785   4.366783   1.052862 H        1 UNL1     0.0234
     117 H         -2.689506   3.668164   0.09856 H        1 UNL1     0.0234
     118 H         3.685178   5.363416   -2.546888 H        1 UNL1     0.0309
     119 H         5.428942   5.483148   -2.938054 H        1 UNL1     0.0309
     120 H         4.675784   3.950814   -2.55483 H        1 UNL1     0.0309
     121 H         0.004672   5.012197   1.763358 H        1 UNL1     0.0524
     122 H         1.512346   4.318893   1.152535 H        1 UNL1     0.0524
     123 H         1.133538   6.029015   0.827371 H        1 UNL1     0.0524
@<TRIPOS>BOND
     1     1     2    1
     2     1    42    1
     3     2     3    2
     4     3     4    1
     5     4     5    2
     6     5     7    1
     7     6    75    1
     8     6    76    1
     9     6    77    1
    10     7     9   am
    11     9    10    1
    12    10    11    2
    13    10    43    1
    14    11    14    1
    15    11    15    1
    16    12    13   ar
    17    12    27   ar
    18    12    43    1
    19    13    14    1
    20    13    30   ar
    21    14    17    2
    22    15    16    1
    23    16    17    1
    24    16    18    1
    25    16    22    1
    26    18    19    1
    27    19    20    1
    28    20    21    1
    29    21    22    1
    30    23    24    1
    31    23    88    1
    32    23    89    1
    33    24    25    1
    34    24    26    1
    35    24    90    1
    36    25    91    1
    37    25    92    1
    38    25    93    1
    39    26    94    1
    40    26    95    1
    41    26    96    1
    42    27    28   ar
    43    28    29   ar
    44    29    30   ar
    45    29    31    1
    46    30    33    1
    47    31    32    1
    48    32    33    1
    49    32    35    1
    50    34    97    1
    51    34    98    1
    52    34    99    1
    53    35    61    1
    54    36    37    1
    55    36    60    1
    56    37    38    1
    57    38    39    1
    58    39    40    1
    59    40    41    1
    60    41    42    1
    61    45   100    1
    62    47   101    1
    63    47   102    1
    64    47   103    1
    65    48   104    1
    66    49   105    1
    67    49   106    1
    68    49   107    1
    69    50   108    1
    70    51    59    1
    71    52   109    1
    72    52   110    1
    73    52   111    1
    74    53    54    1
    75    54    55    2
    76    54    56    1
    77    56   112    1
    78    56   113    1
    79    56   114    1
    80    57   115    1
    81    57   116    1
    82    57   117    1
    83    58   118    1
    84    58   119    1
    85    58   120    1
    86    59   121    1
    87    59   122    1
    88    59   123    1
    89    60    61    2
    90     1    47    1
    91     1    62    1
    92     2    63    1
    93     3    64    1
    94     4    65    1
    95     5     6    1
    96     7     8    2
    97     9    78    1
    98    15    79    1
    99    18    80    1
   100    18    81    1
   101    19    82    1
   102    19    83    1
   103    20    23    1
   104    21    84    1
   105    21    85    1
   106    22    86    1
   107    22    87    1
   108    27    45    1
   109    28    34    1
   110    32    58    1
   111    33    46    2
   112    36    51    1
   113    36    66    1
   114    37    52    1
   115    37    67    1
   116    38    53    1
   117    38    68    1
   118    42    48    1
   119    42    72    1
   120    43    44    2
   121    60    73    1
   122    61    74    1
   123    39    69    1
   124    39    57    1
   125    40    70    1
   126    40    50    1
   127    41    71    1
   128    41    49    1
