@<TRIPOS>MOLECULE
*****
 123 128 0 0 0
SMALL
GASTEIGER

@<TRIPOS>ATOM
     1 C         4.349218   -1.731418   2.845733 C.3        1 UNL1     0.0009
     2 C         5.002283   -3.000555   4.02888 C.2        1 UNL1     -0.0787
     3 C         5.385157   -3.387791   5.370335 C.2        1 UNL1     -0.0649
     4 C         5.864119   -4.917562   5.915086 C.2        1 UNL1     -0.0542
     5 C         6.014135   -5.751126   7.050755 C.2        1 UNL1     0.0115
     6 C         5.9912   -5.774922   8.603891 C.3        1 UNL1     -0.0348
     7 C         6.147853   -7.336693   6.838419 C.2        1 UNL1     0.2441
     8 O         7.21642   -7.928824   6.902227 O.2        1 UNL1     -0.2702
     9 N         4.927965   -8.035266   6.833862 N.am        1 UNL1     -0.2772
     10 C         4.401567   -8.074072   5.563145 C.2        1 UNL1     0.1049
     11 C         3.718225   -7.009597   5.183463 C.2        1 UNL1     0.0801
     12 C         4.989557   -8.591619   3.187488 C.ar        1 UNL1     0.0753
     13 C         4.418264   -7.32291   2.851914 C.ar        1 UNL1     0.0305
     14 C         3.646388   -6.550476   3.822792 C.2        1 UNL1     0.0924
     15 N         3.268004   -5.969285   5.905667 N.pl3        1 UNL1     -0.3170
     16 C         2.434472   -5.167868   5.049391 C.3        1 UNL1     0.1275
     17 N         2.969404   -5.417234   3.660367 N.2        1 UNL1     -0.2557
     18 C         1.03614   -5.777301   5.080404 C.3        1 UNL1     0.0016
     19 C         0.568123   -5.847416   6.525269 C.3        1 UNL1     0.0026
     20 N         0.565623   -4.501648   7.081984 N.3        1 UNL1     -0.3018
     21 C         1.855172   -3.809067   7.040003 C.3        1 UNL1     0.0026
     22 C         2.304152   -3.745896   5.579071 C.3        1 UNL1     0.0016
     23 C         -0.141307   -4.414856   8.344268 C.3        1 UNL1     0.0012
     24 C         0.783506   -4.806305   9.507558 C.3        1 UNL1     -0.0339
     25 C         0.570776   -3.893832   10.726653 C.3        1 UNL1     -0.0615
     26 C         0.583013   -6.269355   9.862621 C.3        1 UNL1     -0.0615
     27 C         5.61966   -9.376743   2.224852 C.ar        1 UNL1     0.1347
     28 C         5.705068   -9.018233   0.891351 C.ar        1 UNL1     0.0342
     29 C         5.1789   -7.743193   0.593721 C.ar        1 UNL1     0.1435
     30 C         4.576976   -6.929873   1.554668 C.ar        1 UNL1     0.0774
     31 O         5.08811   -7.297663   -0.67839 O.3        1 UNL1     -0.4436
     32 C         4.113822   -6.244664   -0.62519 C.3        1 UNL1     0.3143
     33 C         4.119041   -5.772508   0.81469 C.2        1 UNL1     0.2504
     34 C         6.13812   -9.913226   -0.236281 C.3        1 UNL1     -0.0327
     35 O         4.612459   -5.16236   -1.420949 O.2        1 UNL1     -0.4528
     36 C         1.552763   -3.385556   -2.795474 C.3        1 UNL1     0.0854
     37 C         0.343634   -2.737364   -2.017415 C.3        1 UNL1     0.0236
     38 C         0.063713   -1.197168   -2.365532 C.3        1 UNL1     0.1131
     39 C         1.250796   -0.152811   -2.316329 C.3        1 UNL1     0.0200
     40 C         2.345731   -0.17695   -1.058166 C.3        1 UNL1     0.0661
     41 C         1.960785   -0.216144   0.593467 C.3        1 UNL1     0.0091
     42 C         2.844888   -0.987985   2.00344 C.3        1 UNL1     0.0661
     43 C         4.810249   -9.084262   4.575801 C.2        1 UNL1     0.2131
     44 O         4.885661   -10.258761   4.888215 O.2        1 UNL1     -0.2851
     45 O         6.189511   -10.577304   2.643615 O.3        1 UNL1     -0.5056
     46 O         3.831433   -4.680192   1.250558 O.2        1 UNL1     -0.2836
     47 C         5.439436   -0.670131   2.537391 C.3        1 UNL1     -0.0566
     48 O         2.748067   0.212319   2.868895 O.3        1 UNL1     -0.3909
     49 C         0.497317   -0.566444   0.745276 C.3        1 UNL1     -0.0577
     50 O         3.401415   -1.07668   -1.329719 O.3        1 UNL1     -0.3910
     51 O         2.339531   -2.49976   -3.559538 O.3        1 UNL1     -0.3753
     52 C         0.22166   -3.296074   -0.562109 C.3        1 UNL1     -0.0564
     53 O         -1.275418   -0.709034   -1.895662 O.3        1 UNL1     -0.4608
     54 C         -1.843576   0.493779   -2.224855 C.2        1 UNL1     0.3042
     55 O         -1.273309   1.574303   -2.370124 O.2        1 UNL1     -0.2512
     56 C         -3.32193   0.411206   -2.478557 C.3        1 UNL1     0.0332
     57 C         1.825417   -0.00548   -3.801684 C.3        1 UNL1     -0.0567
     58 C         2.746079   -6.898393   -0.93088 C.3        1 UNL1     0.0210
     59 C         2.176576   -2.619417   -4.971981 C.3        1 UNL1     0.0372
     60 C         2.49142   -4.175823   -1.953119 C.2        1 UNL1     -0.0208
     61 C         3.82477   -4.19592   -1.930389 C.2        1 UNL1     0.0882
     62 H         4.40392   -2.478174   2.044438 H        1 UNL1     0.0365
     63 H         5.231983   -3.818891   3.34329 H        1 UNL1     0.0576
     64 H         5.234267   -2.722341   6.223281 H        1 UNL1     0.0615
     65 H         6.062914   -5.471809   4.993798 H        1 UNL1     0.0622
     66 H         1.085165   -4.105292   -3.482044 H        1 UNL1     0.0645
     67 H         -0.546582   -3.225597   -2.450663 H        1 UNL1     0.0362
     68 H         -0.196077   -1.293625   -3.430768 H        1 UNL1     0.0741
     69 H         0.835062   0.843755   -2.249774 H        1 UNL1     0.0359
     70 H         2.798501   0.825636   -1.180152 H        1 UNL1     0.0600
     71 H         1.948269   0.869122   0.814823 H        1 UNL1     0.0348
     72 H         3.585737   -0.893037   1.19632 H        1 UNL1     0.0602
     73 H         1.940308   -4.886041   -1.388216 H        1 UNL1     0.0628
     74 H         4.461144   -3.467473   -2.434006 H        1 UNL1     0.1022
     75 H         6.912234   -5.29728   9.016915 H        1 UNL1     0.0279
     76 H         5.197387   -5.208866   9.086085 H        1 UNL1     0.0279
     77 H         6.071482   -6.791958   9.014856 H        1 UNL1     0.0279
     78 H         4.256442   -7.554794   7.429076 H        1 UNL1     0.1553
     79 H         3.163947   -5.98747   6.903552 H        1 UNL1     0.1484
     80 H         0.363973   -5.161074   4.471124 H        1 UNL1     0.0317
     81 H         1.035224   -6.777494   4.634015 H        1 UNL1     0.0317
     82 H         1.196672   -6.522498   7.12452 H        1 UNL1     0.0428
     83 H         -0.429976   -6.286561   6.524477 H        1 UNL1     0.0428
     84 H         1.808353   -2.773235   7.390248 H        1 UNL1     0.0428
     85 H         2.594506   -4.281258   7.701621 H        1 UNL1     0.0428
     86 H         3.177689   -3.120707   5.571393 H        1 UNL1     0.0317
     87 H         1.577879   -3.174459   4.988237 H        1 UNL1     0.0317
     88 H         -0.46013   -3.373954   8.486292 H        1 UNL1     0.0429
     89 H         -1.049566   -5.031109   8.335836 H        1 UNL1     0.0429
     90 H         1.826891   -4.717226   9.182557 H        1 UNL1     0.0308
     91 H         -0.422952   -4.036527   11.161678 H        1 UNL1     0.0233
     92 H         1.327727   -4.086882   11.490436 H        1 UNL1     0.0233
     93 H         0.657077   -2.830444   10.4725 H        1 UNL1     0.0233
     94 H         -0.430314   -6.429416   10.246527 H        1 UNL1     0.0233
     95 H         0.707894   -6.890644   8.971349 H        1 UNL1     0.0233
     96 H         1.296672   -6.596655   10.623893 H        1 UNL1     0.0233
     97 H         5.873486   -10.951104   -0.057373 H        1 UNL1     0.0280
     98 H         5.661398   -9.641125   -1.187046 H        1 UNL1     0.0280
     99 H         7.232035   -9.85144   -0.357228 H        1 UNL1     0.0280
     100 H         6.439979   -10.596472   3.550544 H        1 UNL1     0.2922
     101 H         5.851369   -0.844225   1.543581 H        1 UNL1     0.0236
     102 H         6.216629   -0.620149   3.299268 H        1 UNL1     0.0236
     103 H         5.023338   0.350208   2.493066 H        1 UNL1     0.0236
     104 H         2.810753   0.998165   2.291411 H        1 UNL1     0.2098
     105 H         0.266575   -1.61512   0.575426 H        1 UNL1     0.0234
     106 H         0.041373   -0.225009   1.674503 H        1 UNL1     0.0234
     107 H         -0.0   0.0   0.0 H        1 UNL1     0.0234
     108 H         3.613383   -0.996971   -2.279711 H        1 UNL1     0.2098
     109 H         -0.140311   -2.537385   0.145761 H        1 UNL1     0.0234
     110 H         -0.408403   -4.189567   -0.495508 H        1 UNL1     0.0234
     111 H         1.193852   -3.62626   -0.172539 H        1 UNL1     0.0234
     112 H         -3.716722   1.406179   -2.705523 H        1 UNL1     0.0342
     113 H         -3.562502   -0.294903   -3.27189 H        1 UNL1     0.0342
     114 H         -3.80858   0.057451   -1.559213 H        1 UNL1     0.0342
     115 H         1.962272   -0.982447   -4.285412 H        1 UNL1     0.0234
     116 H         1.202341   0.602689   -4.460438 H        1 UNL1     0.0234
     117 H         2.852709   0.396123   -3.838133 H        1 UNL1     0.0234
     118 H         2.650136   -7.181419   -1.993752 H        1 UNL1     0.0309
     119 H         2.5393   -7.773786   -0.307076 H        1 UNL1     0.0309
     120 H         1.907497   -6.21073   -0.775943 H        1 UNL1     0.0309
     121 H         3.158029   -2.818722   -5.401379 H        1 UNL1     0.0524
     122 H         1.516994   -3.459147   -5.247377 H        1 UNL1     0.0524
     123 H         1.767497   -1.700516   -5.38231 H        1 UNL1     0.0524
@<TRIPOS>BOND
     1     1     2    1
     2     1    42    1
     3     2     3    2
     4     3     4    1
     5     4     5    2
     6     5     7    1
     7     6    75    1
     8     6    76    1
     9     6    77    1
    10     7     9   am
    11     9    10    1
    12    10    11    2
    13    10    43    1
    14    11    14    1
    15    11    15    1
    16    12    13   ar
    17    12    27   ar
    18    12    43    1
    19    13    14    1
    20    13    30   ar
    21    14    17    2
    22    15    16    1
    23    16    17    1
    24    16    18    1
    25    16    22    1
    26    18    19    1
    27    19    20    1
    28    20    21    1
    29    21    22    1
    30    23    24    1
    31    23    88    1
    32    23    89    1
    33    24    25    1
    34    24    26    1
    35    24    90    1
    36    25    91    1
    37    25    92    1
    38    25    93    1
    39    26    94    1
    40    26    95    1
    41    26    96    1
    42    27    28   ar
    43    28    29   ar
    44    29    30   ar
    45    29    31    1
    46    30    33    1
    47    31    32    1
    48    32    33    1
    49    32    35    1
    50    34    97    1
    51    34    98    1
    52    34    99    1
    53    35    61    1
    54    36    37    1
    55    36    60    1
    56    37    38    1
    57    38    39    1
    58    39    40    1
    59    40    41    1
    60    41    42    1
    61    45   100    1
    62    47   101    1
    63    47   102    1
    64    47   103    1
    65    48   104    1
    66    49   105    1
    67    49   106    1
    68    49   107    1
    69    50   108    1
    70    51    59    1
    71    52   109    1
    72    52   110    1
    73    52   111    1
    74    53    54    1
    75    54    55    2
    76    54    56    1
    77    56   112    1
    78    56   113    1
    79    56   114    1
    80    57   115    1
    81    57   116    1
    82    57   117    1
    83    58   118    1
    84    58   119    1
    85    58   120    1
    86    59   121    1
    87    59   122    1
    88    59   123    1
    89    60    61    2
    90     1    47    1
    91     1    62    1
    92     2    63    1
    93     3    64    1
    94     4    65    1
    95     5     6    1
    96     7     8    2
    97     9    78    1
    98    15    79    1
    99    18    80    1
   100    18    81    1
   101    19    82    1
   102    19    83    1
   103    20    23    1
   104    21    84    1
   105    21    85    1
   106    22    86    1
   107    22    87    1
   108    27    45    1
   109    28    34    1
   110    32    58    1
   111    33    46    2
   112    36    51    1
   113    36    66    1
   114    37    52    1
   115    37    67    1
   116    38    53    1
   117    38    68    1
   118    42    48    1
   119    42    72    1
   120    43    44    2
   121    60    73    1
   122    61    74    1
   123    39    69    1
   124    39    57    1
   125    40    70    1
   126    40    50    1
   127    41    71    1
   128    41    49    1
