@<TRIPOS>MOLECULE
*****
 123 128 0 0 0
SMALL
GASTEIGER

@<TRIPOS>ATOM
     1 C         -1.176399   -3.584563   -3.01099 C.3        1 UNL1     0.0009
     2 C         -0.702916   -3.999147   -4.754828 C.2        1 UNL1     -0.0787
     3 C         -1.0641   -4.181303   -6.14494 C.2        1 UNL1     -0.0649
     4 C         -0.03707   -4.489302   -7.45517 C.2        1 UNL1     -0.0542
     5 C         0.093236   -4.439449   -8.864997 C.2        1 UNL1     0.0115
     6 C         -0.683486   -4.215558   -10.191609 C.3        1 UNL1     -0.0348
     7 C         1.561098   -4.4996   -9.512108 C.2        1 UNL1     0.2441
     8 O         2.023269   -5.511813   -10.020386 O.2        1 UNL1     -0.2702
     9 N         2.17785   -3.249013   -9.690438 N.am        1 UNL1     -0.2772
     10 C         2.870043   -2.88898   -8.557051 C.2        1 UNL1     0.1049
     11 C         2.16002   -2.328282   -7.594914 C.2        1 UNL1     0.0801
     12 C         4.526617   -3.743901   -6.889056 C.ar        1 UNL1     0.0753
     13 C         3.617328   -3.301243   -5.876211 C.ar        1 UNL1     0.0305
     14 C         2.465563   -2.460944   -6.196193 C.2        1 UNL1     0.0924
     15 N         0.902124   -1.855112   -7.613214 N.pl3        1 UNL1     -0.3170
     16 C         0.664361   -1.19054   -6.359393 C.3        1 UNL1     0.1275
     17 N         1.584912   -1.882918   -5.384241 N.2        1 UNL1     -0.2557
     18 C         1.188558   0.235635   -6.49703 C.3        1 UNL1     0.0016
     19 C         0.512643   0.889013   -7.691946 C.3        1 UNL1     0.0026
     20 N         -0.927888   0.878622   -7.477958 N.3        1 UNL1     -0.3018
     21 C         -1.516461   -0.446517   -7.273127 C.3        1 UNL1     0.0026
     22 C         -0.826104   -1.082684   -6.065404 C.3        1 UNL1     0.0016
     23 C         -1.641755   1.735135   -8.403929 C.3        1 UNL1     0.0012
     24 C         -2.77502   0.958043   -9.092111 C.3        1 UNL1     -0.0339
     25 C         -2.505002   -0.555586   -9.083409 C.3        1 UNL1     -0.0615
     26 C         -4.105829   1.292215   -8.440914 C.3        1 UNL1     -0.0615
     27 C         5.686782   -4.442029   -6.562327 C.ar        1 UNL1     0.1347
     28 C         6.062771   -4.720512   -5.260356 C.ar        1 UNL1     0.0342
     29 C         5.128012   -4.318033   -4.282909 C.ar        1 UNL1     0.1435
     30 C         3.944175   -3.649781   -4.59785 C.ar        1 UNL1     0.0774
     31 O         5.399981   -4.419698   -2.963552 O.3        1 UNL1     -0.4436
     32 C         4.481131   -3.514668   -2.33307 C.3        1 UNL1     0.3143
     33 C         3.336662   -3.364325   -3.314803 C.2        1 UNL1     0.2504
     34 C         7.404346   -5.237937   -4.821551 C.3        1 UNL1     -0.0327
     35 O         3.954897   -4.178405   -1.177309 O.2        1 UNL1     -0.4528
     36 C         3.173673   -1.438412   1.330721 C.3        1 UNL1     0.0854
     37 C         2.232891   -0.182354   1.173334 C.3        1 UNL1     0.0236
     38 C         1.09351   -0.046719   2.293672 C.3        1 UNL1     0.1131
     39 C         0.157541   -1.280796   2.615054 C.3        1 UNL1     0.0200
     40 C         -0.481189   -2.201181   1.379193 C.3        1 UNL1     0.0661
     41 C         -1.290819   -1.605373   0.012765 C.3        1 UNL1     0.0091
     42 C         -1.363338   -2.250658   -1.702971 C.3        1 UNL1     0.0661
     43 C         4.238734   -3.357019   -8.292518 C.2        1 UNL1     0.2131
     44 O         5.085177   -3.317787   -9.167008 O.2        1 UNL1     -0.2851
     45 O         6.494904   -4.87684   -7.610811 O.3        1 UNL1     -0.5056
     46 O         2.179156   -3.092175   -3.086834 O.2        1 UNL1     -0.2836
     47 C         -1.94213   -4.769805   -2.363813 C.3        1 UNL1     -0.0566
     48 O         -2.83641   -2.118873   -1.811634 O.3        1 UNL1     -0.3909
     49 C         -1.050188   -0.115461   -0.085989 C.3        1 UNL1     -0.0577
     50 O         0.417257   -3.224462   1.000494 O.3        1 UNL1     -0.3910
     51 O         2.796236   -2.370909   2.318355 O.3        1 UNL1     -0.3753
     52 C         1.966595   0.160543   -0.328817 C.3        1 UNL1     -0.0564
     53 O         0.449896   1.30842   2.334711 O.3        1 UNL1     -0.4608
     54 C         -0.836189   1.566154   2.731558 C.2        1 UNL1     0.3042
     55 O         -1.790615   1.872976   2.018277 O.2        1 UNL1     -0.2512
     56 C         -1.058457   1.384259   4.206083 C.3        1 UNL1     0.0332
     57 C         0.786679   -2.049733   3.868488 C.3        1 UNL1     -0.0567
     58 C         5.215833   -2.15928   -2.211971 C.3        1 UNL1     0.0210
     59 C         2.142242   -1.808541   3.454973 C.3        1 UNL1     0.0372
     60 C         3.407724   -2.209515   0.07941 C.2        1 UNL1     -0.0208
     61 C         3.396898   -3.524965   -0.140178 C.2        1 UNL1     0.0882
     62 H         -0.124915   -3.694872   -2.719573 H        1 UNL1     0.0365
     63 H         0.348429   -4.263285   -4.623012 H        1 UNL1     0.0576
     64 H         -2.071156   -3.964051   -6.507912 H        1 UNL1     0.0615
     65 H         0.909069   -4.769731   -6.984358 H        1 UNL1     0.0622
     66 H         4.149495   -1.018738   1.613022 H        1 UNL1     0.0645
     67 H         2.885208   0.673633   1.418949 H        1 UNL1     0.0362
     68 H         1.726391   0.079486   3.185331 H        1 UNL1     0.0741
     69 H         -0.726615   -0.923315   3.125822 H        1 UNL1     0.0359
     70 H         -1.284391   -2.727889   1.929198 H        1 UNL1     0.0600
     71 H         -2.335522   -1.632624   0.37993 H        1 UNL1     0.0348
     72 H         -1.039523   -3.093621   -1.075378 H        1 UNL1     0.0602
     73 H         3.733865   -1.546875   -0.68334 H        1 UNL1     0.0628
     74 H         3.022601   -4.265256   0.567713 H        1 UNL1     0.1022
     75 H         -1.697699   -3.795868   -9.986021 H        1 UNL1     0.0279
     76 H         -0.264229   -3.487373   -10.882288 H        1 UNL1     0.0279
     77 H         -0.937505   -5.157313   -10.699815 H        1 UNL1     0.0279
     78 H         1.468244   -2.538016   -9.854815 H        1 UNL1     0.1553
     79 H         0.406666   -1.622679   -8.454302 H        1 UNL1     0.1484
     80 H         0.980897   0.78388   -5.570169 H        1 UNL1     0.0317
     81 H         2.275969   0.241907   -6.627988 H        1 UNL1     0.0317
     82 H         0.77649   0.386341   -8.634081 H        1 UNL1     0.0428
     83 H         0.902133   1.904298   -7.772847 H        1 UNL1     0.0428
     84 H         -2.584501   -0.420143   -7.035625 H        1 UNL1     0.0428
     85 H         -1.460087   -1.063546   -8.180548 H        1 UNL1     0.0428
     86 H         -1.369347   -1.987451   -5.86473 H        1 UNL1     0.0317
     87 H         -1.004139   -0.475708   -5.169313 H        1 UNL1     0.0317
     88 H         -2.082179   2.563085   -7.833122 H        1 UNL1     0.0429
     89 H         -0.961299   2.179341   -9.141787 H        1 UNL1     0.0429
     90 H         -2.858789   1.291813   -10.133165 H        1 UNL1     0.0308
     91 H         -1.996173   -0.863549   -8.165066 H        1 UNL1     0.0233
     92 H         -3.438309   -1.115039   -9.181182 H        1 UNL1     0.0233
     93 H         -1.870113   -0.871362   -9.92009 H        1 UNL1     0.0233
     94 H         -3.949301   1.943945   -7.574552 H        1 UNL1     0.0233
     95 H         -4.746298   1.8231   -9.150788 H        1 UNL1     0.0233
     96 H         -4.623634   0.389394   -8.105116 H        1 UNL1     0.0233
     97 H         7.90628   -4.549428   -4.148315 H        1 UNL1     0.0280
     98 H         7.323477   -6.186911   -4.275507 H        1 UNL1     0.0280
     99 H         8.047873   -5.389648   -5.703567 H        1 UNL1     0.0280
     100 H         6.648733   -4.232885   -8.279601 H        1 UNL1     0.2922
     101 H         -1.738268   -5.685715   -2.918075 H        1 UNL1     0.0236
     102 H         -3.010596   -4.584052   -2.259605 H        1 UNL1     0.0236
     103 H         -1.592014   -4.978943   -1.33918 H        1 UNL1     0.0236
     104 H         -3.117541   -2.602809   -2.612722 H        1 UNL1     0.2098
     105 H         -1.357413   0.327484   -1.030036 H        1 UNL1     0.0234
     106 H         -1.441777   0.465384   0.748999 H        1 UNL1     0.0234
     107 H         0.0   0.0   0.0 H        1 UNL1     0.0234
     108 H         0.802852   -2.968358   0.140555 H        1 UNL1     0.2098
     109 H         0.948494   0.539519   -0.494823 H        1 UNL1     0.0234
     110 H         2.692947   0.867346   -0.744251 H        1 UNL1     0.0234
     111 H         2.061767   -0.726314   -0.969421 H        1 UNL1     0.0234
     112 H         -2.087442   1.060798   4.390225 H        1 UNL1     0.0342
     113 H         -0.345525   0.687815   4.644874 H        1 UNL1     0.0342
     114 H         -0.918383   2.357279   4.696772 H        1 UNL1     0.0342
     115 H         1.381435   -2.919623   3.557451 H        1 UNL1     0.0234
     116 H         1.423024   -1.425247   4.498672 H        1 UNL1     0.0234
     117 H         0.031381   -2.528287   4.515367 H        1 UNL1     0.0234
     118 H         5.942166   -2.154246   -1.380454 H        1 UNL1     0.0309
     119 H         5.725306   -1.862843   -3.13434 H        1 UNL1     0.0309
     120 H         4.539016   -1.335209   -1.961107 H        1 UNL1     0.0309
     121 H         1.537733   -0.971443   3.106848 H        1 UNL1     0.0524
     122 H         1.463949   -2.526633   3.945177 H        1 UNL1     0.0524
     123 H         2.875752   -1.465592   4.179158 H        1 UNL1     0.0524
@<TRIPOS>BOND
     1     1     2    1
     2     1    42    1
     3     2     3    2
     4     3     4    1
     5     4     5    2
     6     5     7    1
     7     6    75    1
     8     6    76    1
     9     6    77    1
    10     7     9   am
    11     9    10    1
    12    10    11    2
    13    10    43    1
    14    11    14    1
    15    11    15    1
    16    12    13   ar
    17    12    27   ar
    18    12    43    1
    19    13    14    1
    20    13    30   ar
    21    14    17    2
    22    15    16    1
    23    16    17    1
    24    16    18    1
    25    16    22    1
    26    18    19    1
    27    19    20    1
    28    20    21    1
    29    21    22    1
    30    23    24    1
    31    23    88    1
    32    23    89    1
    33    24    25    1
    34    24    26    1
    35    24    90    1
    36    25    91    1
    37    25    92    1
    38    25    93    1
    39    26    94    1
    40    26    95    1
    41    26    96    1
    42    27    28   ar
    43    28    29   ar
    44    29    30   ar
    45    29    31    1
    46    30    33    1
    47    31    32    1
    48    32    33    1
    49    32    35    1
    50    34    97    1
    51    34    98    1
    52    34    99    1
    53    35    61    1
    54    36    37    1
    55    36    60    1
    56    37    38    1
    57    38    39    1
    58    39    40    1
    59    40    41    1
    60    41    42    1
    61    45   100    1
    62    47   101    1
    63    47   102    1
    64    47   103    1
    65    48   104    1
    66    49   105    1
    67    49   106    1
    68    49   107    1
    69    50   108    1
    70    51    59    1
    71    52   109    1
    72    52   110    1
    73    52   111    1
    74    53    54    1
    75    54    55    2
    76    54    56    1
    77    56   112    1
    78    56   113    1
    79    56   114    1
    80    57   115    1
    81    57   116    1
    82    57   117    1
    83    58   118    1
    84    58   119    1
    85    58   120    1
    86    59   121    1
    87    59   122    1
    88    59   123    1
    89    60    61    2
    90     1    47    1
    91     1    62    1
    92     2    63    1
    93     3    64    1
    94     4    65    1
    95     5     6    1
    96     7     8    2
    97     9    78    1
    98    15    79    1
    99    18    80    1
   100    18    81    1
   101    19    82    1
   102    19    83    1
   103    20    23    1
   104    21    84    1
   105    21    85    1
   106    22    86    1
   107    22    87    1
   108    27    45    1
   109    28    34    1
   110    32    58    1
   111    33    46    2
   112    36    51    1
   113    36    66    1
   114    37    52    1
   115    37    67    1
   116    38    53    1
   117    38    68    1
   118    42    48    1
   119    42    72    1
   120    43    44    2
   121    60    73    1
   122    61    74    1
   123    39    69    1
   124    39    57    1
   125    40    70    1
   126    40    50    1
   127    41    71    1
   128    41    49    1
