@<TRIPOS>MOLECULE
*****
 123 128 0 0 0
SMALL
GASTEIGER

@<TRIPOS>ATOM
     1 C         -4.449922   -1.558353   -2.463059 C.3        1 UNL1     0.0009
     2 C         -6.255004   -1.21611   -2.711225 C.2        1 UNL1     -0.0787
     3 C         -7.634603   -1.399054   -2.312122 C.2        1 UNL1     -0.0649
     4 C         -9.009667   -0.638071   -2.941774 C.2        1 UNL1     -0.0542
     5 C         -10.363866   -0.300519   -2.698292 C.2        1 UNL1     0.0115
     6 C         -11.566809   -0.540175   -1.744974 C.3        1 UNL1     -0.0348
     7 C         -11.047853   0.852689   -3.581049 C.2        1 UNL1     0.2441
     8 O         -11.809753   0.617002   -4.508673 O.2        1 UNL1     -0.2702
     9 N         -10.920938   2.150254   -3.055342 N.am        1 UNL1     -0.2772
     10 C         -9.754108   2.733652   -3.492923 C.2        1 UNL1     0.1049
     11 C         -8.660747   2.424622   -2.81966 C.2        1 UNL1     0.0801
     12 C         -8.407115   3.17145   -5.554785 C.ar        1 UNL1     0.0753
     13 C         -7.288841   2.629556   -4.844558 C.ar        1 UNL1     0.0305
     14 C         -7.3511   2.360705   -3.409673 C.2        1 UNL1     0.0924
     15 N         -8.521411   1.79407   -1.640882 N.pl3        1 UNL1     -0.3170
     16 C         -7.133546   1.862212   -1.267463 C.3        1 UNL1     0.1275
     17 N         -6.393531   1.957556   -2.579336 N.2        1 UNL1     -0.2557
     18 C         -6.920001   3.19841   -0.562712 C.3        1 UNL1     0.0016
     19 C         -7.889565   3.292986   0.604588 C.3        1 UNL1     0.0026
     20 N         -7.64303   2.17835   1.50893 N.3        1 UNL1     -0.3018
     21 C         -7.764075   0.849618   0.90545 C.3        1 UNL1     0.0026
     22 C         -6.778185   0.775099   -0.261753 C.3        1 UNL1     0.0016
     23 C         -8.299901   2.336552   2.791169 C.3        1 UNL1     0.0012
     24 C         -9.323418   3.481518   2.734388 C.3        1 UNL1     -0.0339
     25 C         -10.65716   3.076241   3.383186 C.3        1 UNL1     -0.0615
     26 C         -8.744984   4.729532   3.378326 C.3        1 UNL1     -0.0615
     27 C         -8.302493   3.537716   -6.894569 C.ar        1 UNL1     0.1347
     28 C         -7.125465   3.446203   -7.615874 C.ar        1 UNL1     0.0342
     29 C         -6.050865   2.86446   -6.9102 C.ar        1 UNL1     0.1435
     30 C         -6.150979   2.459407   -5.578611 C.ar        1 UNL1     0.0774
     31 O         -4.809094   2.807248   -7.439102 O.3        1 UNL1     -0.4436
     32 C         -3.942847   2.614229   -6.310725 C.3        1 UNL1     0.3143
     33 C         -4.820233   2.001282   -5.238017 C.2        1 UNL1     0.2504
     34 C         -6.871946   4.048596   -8.969739 C.3        1 UNL1     -0.0327
     35 O         -2.978478   1.620481   -6.679111 O.2        1 UNL1     -0.4528
     36 C         0.164711   2.442592   -4.716312 C.3        1 UNL1     0.0854
     37 C         0.358986   2.576841   -3.156902 C.3        1 UNL1     0.0236
     38 C         1.510009   1.648209   -2.536795 C.3        1 UNL1     0.1131
     39 C         1.534958   0.101734   -2.868551 C.3        1 UNL1     0.0200
     40 C         0.125255   -0.789742   -2.847448 C.3        1 UNL1     0.0661
     41 C         -1.020815   -0.807095   -1.596914 C.3        1 UNL1     0.0091
     42 C         -2.841257   -1.026468   -1.654076 C.3        1 UNL1     0.0661
     43 C         -9.657336   3.414007   -4.792964 C.2        1 UNL1     0.2131
     44 O         -10.517687   4.20083   -5.144311 O.2        1 UNL1     -0.2851
     45 O         -9.45026   4.014359   -7.524553 O.3        1 UNL1     -0.5056
     46 O         -4.496773   1.279157   -4.321631 O.2        1 UNL1     -0.2836
     47 C         -4.102595   -2.99402   -2.940768 C.3        1 UNL1     -0.0566
     48 O         -2.869619   -2.025707   -0.558707 O.3        1 UNL1     -0.3909
     49 C         -0.745176   0.352798   -0.666233 C.3        1 UNL1     -0.0577
     50 O         -0.526982   -0.725727   -4.09973 O.3        1 UNL1     -0.3910
     51 O         0.893948   1.410643   -5.341394 O.3        1 UNL1     -0.3753
     52 C         -0.998447   2.821576   -2.420403 C.3        1 UNL1     -0.0564
     53 O         1.912549   2.039451   -1.144955 O.3        1 UNL1     -0.4608
     54 C         1.712704   1.285856   -0.017974 C.2        1 UNL1     0.3042
     55 O         0.848202   1.444549   0.843009 O.2        1 UNL1     -0.2512
     56 C         2.648697   0.116529   0.09737 C.3        1 UNL1     0.0332
     57 C         2.533138   -0.111309   -4.099982 C.3        1 UNL1     -0.0567
     58 C         -3.503304   4.023691   -5.850564 C.3        1 UNL1     0.0210
     59 C         2.3016   1.447012   -5.111051 C.3        1 UNL1     0.0372
     60 C         -1.247659   2.302268   -5.164285 C.2        1 UNL1     -0.0208
     61 C         -1.793535   1.474083   -6.055842 C.2        1 UNL1     0.0882
     62 H         -4.227046   -0.88715   -3.301226 H        1 UNL1     0.0365
     63 H         -6.225473   -0.621167   -3.626452 H        1 UNL1     0.0576
     64 H         -7.900819   -1.957206   -1.411731 H        1 UNL1     0.0615
     65 H         -8.653439   -0.182279   -3.869587 H        1 UNL1     0.0622
     66 H         0.515518   3.402058   -5.121781 H        1 UNL1     0.0645
     67 H         0.79457   3.58275   -3.026623 H        1 UNL1     0.0362
     68 H         2.385524   2.071402   -3.052453 H        1 UNL1     0.0741
     69 H         2.145464   -0.402546   -2.1314 H        1 UNL1     0.0359
     70 H         0.546889   -1.812317   -2.807134 H        1 UNL1     0.0600
     71 H         -0.642087   -1.659485   -0.999458 H        1 UNL1     0.0348
     72 H         -2.457969   -1.423336   -2.605339 H        1 UNL1     0.0602
     73 H         -1.826468   3.087848   -4.745845 H        1 UNL1     0.0628
     74 H         -1.286059   0.610289   -6.486617 H        1 UNL1     0.1022
     75 H         -11.212031   -0.898224   -0.748495 H        1 UNL1     0.0279
     76 H         -12.159439   0.333344   -1.482634 H        1 UNL1     0.0279
     77 H         -12.201337   -1.38007   -2.063801 H        1 UNL1     0.0279
     78 H         -10.878557   2.105042   -2.039351 H        1 UNL1     0.1553
     79 H         -9.261036   1.698515   -0.969498 H        1 UNL1     0.1484
     80 H         -5.878653   3.26187   -0.224579 H        1 UNL1     0.0317
     81 H         -7.076942   4.034287   -1.25288 H        1 UNL1     0.0317
     82 H         -8.935762   3.303294   0.265061 H        1 UNL1     0.0428
     83 H         -7.721509   4.253891   1.091897 H        1 UNL1     0.0428
     84 H         -7.49641   0.033661   1.583964 H        1 UNL1     0.0428
     85 H         -8.799647   0.625677   0.614318 H        1 UNL1     0.0428
     86 H         -6.797878   -0.246729   -0.592612 H        1 UNL1     0.0317
     87 H         -5.752547   0.903292   0.105302 H        1 UNL1     0.0317
     88 H         -8.831473   1.403621   3.020004 H        1 UNL1     0.0429
     89 H         -7.570655   2.496846   3.595706 H        1 UNL1     0.0429
     90 H         -9.510512   3.744409   1.686487 H        1 UNL1     0.0308
     91 H         -10.504313   2.347066   4.184462 H        1 UNL1     0.0233
     92 H         -11.171529   3.951099   3.787731 H        1 UNL1     0.0233
     93 H         -11.349094   2.619559   2.6652 H        1 UNL1     0.0233
     94 H         -9.327357   5.001448   4.265309 H        1 UNL1     0.0233
     95 H         -7.715039   4.543308   3.695338 H        1 UNL1     0.0233
     96 H         -8.753684   5.57627   2.68628 H        1 UNL1     0.0233
     97 H         -5.995543   3.621576   -9.448073 H        1 UNL1     0.0280
     98 H         -7.706244   3.876221   -9.662191 H        1 UNL1     0.0280
     99 H         -6.714708   5.134771   -8.866805 H        1 UNL1     0.0280
     100 H         -10.146652   4.255488   -6.939303 H        1 UNL1     0.2922
     101 H         -4.430522   -3.127985   -3.971386 H        1 UNL1     0.0236
     102 H         -4.492263   -3.770537   -2.283376 H        1 UNL1     0.0236
     103 H         -3.014155   -3.169318   -2.968379 H        1 UNL1     0.0236
     104 H         -2.937227   -1.536893   0.284775 H        1 UNL1     0.2098
     105 H         -0.357733   1.24129   -1.158453 H        1 UNL1     0.0234
     106 H         -1.573755   0.616051   -0.008904 H        1 UNL1     0.0234
     107 H         0.0   0.0   0.0 H        1 UNL1     0.0234
     108 H         -1.435486   -1.060144   -3.971066 H        1 UNL1     0.2098
     109 H         -0.92366   3.614124   -1.662784 H        1 UNL1     0.0234
     110 H         -1.824787   3.044789   -3.103837 H        1 UNL1     0.0234
     111 H         -1.333615   1.925572   -1.881156 H        1 UNL1     0.0234
     112 H         2.422949   -0.452839   1.004124 H        1 UNL1     0.0342
     113 H         2.615993   -0.522689   -0.783638 H        1 UNL1     0.0342
     114 H         3.672547   0.504376   0.189399 H        1 UNL1     0.0342
     115 H         3.04779   -1.080516   -4.045584 H        1 UNL1     0.0234
     116 H         2.051313   -0.049803   -5.077791 H        1 UNL1     0.0234
     117 H         3.389328   0.585021   -4.097812 H        1 UNL1     0.0234
     118 H         -4.169358   4.813443   -6.24001 H        1 UNL1     0.0309
     119 H         -3.433988   4.11814   -4.762227 H        1 UNL1     0.0309
     120 H         -2.520221   4.306345   -6.242688 H        1 UNL1     0.0309
     121 H         2.760334   1.96354   -5.953737 H        1 UNL1     0.0524
     122 H         2.561666   2.006677   -4.19717 H        1 UNL1     0.0524
     123 H         2.695471   0.437815   -5.030544 H        1 UNL1     0.0524
@<TRIPOS>BOND
     1     1     2    1
     2     1    42    1
     3     2     3    2
     4     3     4    1
     5     4     5    2
     6     5     7    1
     7     6    75    1
     8     6    76    1
     9     6    77    1
    10     7     9   am
    11     9    10    1
    12    10    11    2
    13    10    43    1
    14    11    14    1
    15    11    15    1
    16    12    13   ar
    17    12    27   ar
    18    12    43    1
    19    13    14    1
    20    13    30   ar
    21    14    17    2
    22    15    16    1
    23    16    17    1
    24    16    18    1
    25    16    22    1
    26    18    19    1
    27    19    20    1
    28    20    21    1
    29    21    22    1
    30    23    24    1
    31    23    88    1
    32    23    89    1
    33    24    25    1
    34    24    26    1
    35    24    90    1
    36    25    91    1
    37    25    92    1
    38    25    93    1
    39    26    94    1
    40    26    95    1
    41    26    96    1
    42    27    28   ar
    43    28    29   ar
    44    29    30   ar
    45    29    31    1
    46    30    33    1
    47    31    32    1
    48    32    33    1
    49    32    35    1
    50    34    97    1
    51    34    98    1
    52    34    99    1
    53    35    61    1
    54    36    37    1
    55    36    60    1
    56    37    38    1
    57    38    39    1
    58    39    40    1
    59    40    41    1
    60    41    42    1
    61    45   100    1
    62    47   101    1
    63    47   102    1
    64    47   103    1
    65    48   104    1
    66    49   105    1
    67    49   106    1
    68    49   107    1
    69    50   108    1
    70    51    59    1
    71    52   109    1
    72    52   110    1
    73    52   111    1
    74    53    54    1
    75    54    55    2
    76    54    56    1
    77    56   112    1
    78    56   113    1
    79    56   114    1
    80    57   115    1
    81    57   116    1
    82    57   117    1
    83    58   118    1
    84    58   119    1
    85    58   120    1
    86    59   121    1
    87    59   122    1
    88    59   123    1
    89    60    61    2
    90     1    47    1
    91     1    62    1
    92     2    63    1
    93     3    64    1
    94     4    65    1
    95     5     6    1
    96     7     8    2
    97     9    78    1
    98    15    79    1
    99    18    80    1
   100    18    81    1
   101    19    82    1
   102    19    83    1
   103    20    23    1
   104    21    84    1
   105    21    85    1
   106    22    86    1
   107    22    87    1
   108    27    45    1
   109    28    34    1
   110    32    58    1
   111    33    46    2
   112    36    51    1
   113    36    66    1
   114    37    52    1
   115    37    67    1
   116    38    53    1
   117    38    68    1
   118    42    48    1
   119    42    72    1
   120    43    44    2
   121    60    73    1
   122    61    74    1
   123    39    69    1
   124    39    57    1
   125    40    70    1
   126    40    50    1
   127    41    71    1
   128    41    49    1
