@<TRIPOS>MOLECULE
*****
 123 128 0 0 0
SMALL
GASTEIGER

@<TRIPOS>ATOM
     1 C         5.144181   1.816653   0.494608 C.3        1 UNL1     0.0009
     2 C         6.562337   2.660604   -0.350151 C.2        1 UNL1     -0.0787
     3 C         7.843458   2.595209   -1.021344 C.2        1 UNL1     -0.0649
     4 C         8.694709   3.856263   -1.763955 C.2        1 UNL1     -0.0542
     5 C         9.705667   4.180117   -2.702124 C.2        1 UNL1     0.0115
     6 C         10.842385   3.58724   -3.579445 C.3        1 UNL1     -0.0348
     7 C         9.770797   5.672526   -3.289886 C.2        1 UNL1     0.2441
     8 O         10.580351   6.504747   -2.904457 O.2        1 UNL1     -0.2702
     9 N         9.012625   5.880156   -4.455311 N.am        1 UNL1     -0.2772
     10 C         7.723961   6.238442   -4.132361 C.2        1 UNL1     0.1049
     11 C         6.897728   5.247542   -3.850086 C.2        1 UNL1     0.0801
     12 C         6.400486   7.802099   -2.696837 C.ar        1 UNL1     0.0753
     13 C         5.664478   6.654396   -2.261315 C.ar        1 UNL1     0.0305
     14 C         5.803755   5.359478   -2.923766 C.2        1 UNL1     0.0924
     15 N         7.044869   3.923261   -4.0266 N.pl3        1 UNL1     -0.3170
     16 C         5.787687   3.296192   -3.715904 C.3        1 UNL1     0.1275
     17 N         5.136853   4.226632   -2.72171 N.2        1 UNL1     -0.2557
     18 C         4.92937   3.355206   -4.975869 C.3        1 UNL1     0.0016
     19 C         5.693008   2.699977   -6.115659 C.3        1 UNL1     0.0026
     20 N         5.990517   1.322432   -5.748392 N.3        1 UNL1     -0.3018
     21 C         6.761187   1.160736   -4.51377 C.3        1 UNL1     0.0026
     22 C         5.973539   1.822036   -3.381432 C.3        1 UNL1     0.0016
     23 C         6.446465   0.525673   -6.869967 C.3        1 UNL1     0.0012
     24 C         5.292442   0.2669   -7.851304 C.3        1 UNL1     -0.0339
     25 C         5.345844   1.229916   -9.04872 C.3        1 UNL1     -0.0615
     26 C         5.305743   -1.184093   -8.299881 C.3        1 UNL1     -0.0615
     27 C         6.173837   9.058707   -2.140344 C.ar        1 UNL1     0.1347
     28 C         5.213291   9.297783   -1.173782 C.ar        1 UNL1     0.0342
     29 C         4.534938   8.144473   -0.72559 C.ar        1 UNL1     0.1435
     30 C         4.776759   6.873379   -1.248144 C.ar        1 UNL1     0.0774
     31 O         3.495041   8.227416   0.132747 O.3        1 UNL1     -0.4436
     32 C         2.796282   6.983061   -0.022792 C.3        1 UNL1     0.3143
     33 C         3.826256   6.016188   -0.570992 C.2        1 UNL1     0.2504
     34 C         4.742297   10.649452   -0.714155 C.3        1 UNL1     -0.0327
     35 O         2.448668   6.52287   1.28894 O.2        1 UNL1     -0.4528
     36 C         -0.758689   4.534824   0.8783 C.3        1 UNL1     0.0854
     37 C         -1.043329   3.280221   -0.034101 C.3        1 UNL1     0.0236
     38 C         -1.617129   1.998092   0.739619 C.3        1 UNL1     0.1131
     39 C         -0.876819   1.464459   2.03169 C.3        1 UNL1     0.0200
     40 C         0.786963   1.349887   2.06545 C.3        1 UNL1     0.0661
     41 C         1.756501   0.614318   0.883695 C.3        1 UNL1     0.0091
     42 C         3.454905   1.016306   0.318687 C.3        1 UNL1     0.0661
     43 C         7.350267   7.626724   -3.823522 C.2        1 UNL1     0.2131
     44 O         7.730537   8.541295   -4.531824 O.2        1 UNL1     -0.2851
     45 O         6.964756   10.114768   -2.588249 O.3        1 UNL1     -0.5056
     46 O         3.865449   4.811604   -0.45569 O.2        1 UNL1     -0.2836
     47 C         5.553731   1.376475   1.925864 C.3        1 UNL1     -0.0566
     48 O         3.930339   -0.386979   0.380903 O.3        1 UNL1     -0.3909
     49 C         0.922425   0.381784   -0.356361 C.3        1 UNL1     -0.0577
     50 O         1.365447   2.573796   2.471809 O.3        1 UNL1     -0.3910
     51 O         -0.874191   4.325128   2.267587 O.3        1 UNL1     -0.3753
     52 C         -0.00016   3.154249   -1.192064 C.3        1 UNL1     -0.0564
     53 O         -2.203212   0.959427   -0.171428 O.3        1 UNL1     -0.4608
     54 C         -2.399136   -0.358796   0.147684 C.2        1 UNL1     0.3042
     55 O         -1.809424   -1.334741   -0.314494 O.2        1 UNL1     -0.2512
     56 C         -3.421326   -0.570546   1.227963 C.3        1 UNL1     0.0332
     57 C         -1.605837   2.103563   3.303795 C.3        1 UNL1     -0.0567
     58 C         1.712773   7.221533   -1.100135 C.3        1 UNL1     0.0210
     59 C         -1.206954   5.488472   3.023739 C.3        1 UNL1     0.0372
     60 C         0.55735   5.191847   0.651316 C.2        1 UNL1     -0.0208
     61 C         1.465009   5.633185   1.523166 C.2        1 UNL1     0.0882
     62 H         4.650069   2.790447   0.596053 H        1 UNL1     0.0365
     63 H         6.276608   3.707747   -0.230481 H        1 UNL1     0.0576
     64 H         8.318501   1.640091   -1.256274 H        1 UNL1     0.0615
     65 H         8.191666   4.757782   -1.403826 H        1 UNL1     0.0622
     66 H         -1.518416   5.271007   0.580145 H        1 UNL1     0.0645
     67 H         -1.916752   3.580898   -0.638489 H        1 UNL1     0.0362
     68 H         -2.571016   2.412444   1.100081 H        1 UNL1     0.0741
     69 H         -1.188479   0.444859   2.215246 H        1 UNL1     0.0359
     70 H         0.914351   0.680628   2.93776 H        1 UNL1     0.0600
     71 H         1.820897   -0.41119   1.297388 H        1 UNL1     0.0348
     72 H         3.343332   1.489909   1.304875 H        1 UNL1     0.0602
     73 H         0.667781   5.404471   -0.383017 H        1 UNL1     0.0628
     74 H         1.455282   5.408627   2.590273 H        1 UNL1     0.1022
     75 H         10.889663   2.477678   -3.462516 H        1 UNL1     0.0279
     76 H         10.73634   3.705089   -4.655519 H        1 UNL1     0.0279
     77 H         11.843961   3.884351   -3.23554 H        1 UNL1     0.0279
     78 H         8.965187   5.015939   -4.990994 H        1 UNL1     0.1553
     79 H         7.715886   3.515835   -4.651638 H        1 UNL1     0.1484
     80 H         3.978236   2.843728   -4.784814 H        1 UNL1     0.0317
     81 H         4.682247   4.390847   -5.232828 H        1 UNL1     0.0317
     82 H         6.612573   3.251918   -6.359941 H        1 UNL1     0.0428
     83 H         5.063731   2.754617   -7.00452 H        1 UNL1     0.0428
     84 H         6.902295   0.1164   -4.21837 H        1 UNL1     0.0428
     85 H         7.783764   1.549498   -4.616318 H        1 UNL1     0.0428
     86 H         6.497854   1.569961   -2.47836 H        1 UNL1     0.0317
     87 H         5.003747   1.324387   -3.259185 H        1 UNL1     0.0317
     88 H         7.230255   1.089111   -7.392945 H        1 UNL1     0.0429
     89 H         6.898105   -0.416127   -6.532615 H        1 UNL1     0.0429
     90 H         4.338602   0.410508   -7.329979 H        1 UNL1     0.0308
     91 H         6.300701   1.154438   -9.577543 H        1 UNL1     0.0233
     92 H         4.531674   1.023209   -9.747295 H        1 UNL1     0.0233
     93 H         5.231238   2.278111   -8.747079 H        1 UNL1     0.0233
     94 H         4.613437   -1.327121   -9.136595 H        1 UNL1     0.0233
     95 H         6.307544   -1.460814   -8.64015 H        1 UNL1     0.0233
     96 H         5.01058   -1.855325   -7.488527 H        1 UNL1     0.0233
     97 H         3.946381   10.575354   0.020866 H        1 UNL1     0.0280
     98 H         5.543485   11.225139   -0.232556 H        1 UNL1     0.0280
     99 H         4.36364   11.221393   -1.577056 H        1 UNL1     0.0280
     100 H         6.482481   10.860953   -2.898478 H        1 UNL1     0.2922
     101 H         4.69774   0.931484   2.432735 H        1 UNL1     0.0236
     102 H         6.002434   2.179664   2.509419 H        1 UNL1     0.0236
     103 H         6.315986   0.579629   1.911868 H        1 UNL1     0.0236
     104 H         4.349969   -0.517808   1.253694 H        1 UNL1     0.2098
     105 H         0.711036   1.280423   -0.930448 H        1 UNL1     0.0234
     106 H         1.291062   -0.407196   -1.011757 H        1 UNL1     0.0234
     107 H         0.0   -0.0   0.0 H        1 UNL1     0.0234
     108 H         1.167089   3.232668   1.778765 H        1 UNL1     0.2098
     109 H         1.029207   3.067795   -0.817043 H        1 UNL1     0.0234
     110 H         -0.21254   2.324029   -1.874247 H        1 UNL1     0.0234
     111 H         -0.006708   4.040235   -1.840858 H        1 UNL1     0.0234
     112 H         -3.513959   -1.638307   1.448536 H        1 UNL1     0.0342
     113 H         -3.188713   -0.004291   2.128568 H        1 UNL1     0.0342
     114 H         -4.392832   -0.218209   0.85487 H        1 UNL1     0.0342
     115 H         -2.670435   1.834611   3.342304 H        1 UNL1     0.0234
     116 H         -1.160725   1.819922   4.259553 H        1 UNL1     0.0234
     117 H         -1.665421   3.20502   3.269385 H        1 UNL1     0.0234
     118 H         0.803552   7.68458   -0.678342 H        1 UNL1     0.0309
     119 H         2.067478   7.828401   -1.939241 H        1 UNL1     0.0309
     120 H         1.341458   6.287932   -1.536738 H        1 UNL1     0.0309
     121 H         -0.382458   6.193822   2.923513 H        1 UNL1     0.0524
     122 H         -2.116694   5.985644   2.647932 H        1 UNL1     0.0524
     123 H         -1.353085   5.228663   4.068363 H        1 UNL1     0.0524
@<TRIPOS>BOND
     1     1     2    1
     2     1    42    1
     3     2     3    2
     4     3     4    1
     5     4     5    2
     6     5     7    1
     7     6    75    1
     8     6    76    1
     9     6    77    1
    10     7     9   am
    11     9    10    1
    12    10    11    2
    13    10    43    1
    14    11    14    1
    15    11    15    1
    16    12    13   ar
    17    12    27   ar
    18    12    43    1
    19    13    14    1
    20    13    30   ar
    21    14    17    2
    22    15    16    1
    23    16    17    1
    24    16    18    1
    25    16    22    1
    26    18    19    1
    27    19    20    1
    28    20    21    1
    29    21    22    1
    30    23    24    1
    31    23    88    1
    32    23    89    1
    33    24    25    1
    34    24    26    1
    35    24    90    1
    36    25    91    1
    37    25    92    1
    38    25    93    1
    39    26    94    1
    40    26    95    1
    41    26    96    1
    42    27    28   ar
    43    28    29   ar
    44    29    30   ar
    45    29    31    1
    46    30    33    1
    47    31    32    1
    48    32    33    1
    49    32    35    1
    50    34    97    1
    51    34    98    1
    52    34    99    1
    53    35    61    1
    54    36    37    1
    55    36    60    1
    56    37    38    1
    57    38    39    1
    58    39    40    1
    59    40    41    1
    60    41    42    1
    61    45   100    1
    62    47   101    1
    63    47   102    1
    64    47   103    1
    65    48   104    1
    66    49   105    1
    67    49   106    1
    68    49   107    1
    69    50   108    1
    70    51    59    1
    71    52   109    1
    72    52   110    1
    73    52   111    1
    74    53    54    1
    75    54    55    2
    76    54    56    1
    77    56   112    1
    78    56   113    1
    79    56   114    1
    80    57   115    1
    81    57   116    1
    82    57   117    1
    83    58   118    1
    84    58   119    1
    85    58   120    1
    86    59   121    1
    87    59   122    1
    88    59   123    1
    89    60    61    2
    90     1    47    1
    91     1    62    1
    92     2    63    1
    93     3    64    1
    94     4    65    1
    95     5     6    1
    96     7     8    2
    97     9    78    1
    98    15    79    1
    99    18    80    1
   100    18    81    1
   101    19    82    1
   102    19    83    1
   103    20    23    1
   104    21    84    1
   105    21    85    1
   106    22    86    1
   107    22    87    1
   108    27    45    1
   109    28    34    1
   110    32    58    1
   111    33    46    2
   112    36    51    1
   113    36    66    1
   114    37    52    1
   115    37    67    1
   116    38    53    1
   117    38    68    1
   118    42    48    1
   119    42    72    1
   120    43    44    2
   121    60    73    1
   122    61    74    1
   123    39    69    1
   124    39    57    1
   125    40    70    1
   126    40    50    1
   127    41    71    1
   128    41    49    1
