@<TRIPOS>MOLECULE
*****
 123 128 0 0 0
SMALL
GASTEIGER

@<TRIPOS>ATOM
     1 C         4.721644   2.775503   -0.119731 C.3        1 UNL1     0.0009
     2 C         6.121377   3.376915   -1.176181 C.2        1 UNL1     -0.0787
     3 C         7.486003   3.252133   -1.643375 C.2        1 UNL1     -0.0649
     4 C         8.257897   4.1503   -2.853264 C.2        1 UNL1     -0.0542
     5 C         9.34487   4.181449   -3.761337 C.2        1 UNL1     0.0115
     6 C         10.672051   3.477788   -4.157285 C.3        1 UNL1     -0.0348
     7 C         9.291967   5.199064   -5.00176 C.2        1 UNL1     0.2441
     8 O         9.911332   6.253775   -5.024073 O.2        1 UNL1     -0.2702
     9 N         8.697713   4.679426   -6.164941 N.am        1 UNL1     -0.2772
     10 C         7.338073   4.889881   -6.144681 C.2        1 UNL1     0.1049
     11 C         6.623145   4.011174   -5.46573 C.2        1 UNL1     0.0801
     12 C         5.609796   6.655603   -5.754018 C.ar        1 UNL1     0.0753
     13 C         4.981584   5.732074   -4.859003 C.ar        1 UNL1     0.0305
     14 C         5.396658   4.332897   -4.787793 C.2        1 UNL1     0.0924
     15 N         6.976382   2.817996   -4.957714 N.pl3        1 UNL1     -0.3170
     16 C         5.785194   2.181796   -4.46115 C.3        1 UNL1     0.1275
     17 N         4.869392   3.32519   -4.098269 N.2        1 UNL1     -0.2557
     18 C         5.12771   1.47028   -5.639777 C.3        1 UNL1     0.0016
     19 C         6.13805   0.516522   -6.257148 C.3        1 UNL1     0.0026
     20 N         6.563469   -0.436192   -5.241086 N.3        1 UNL1     -0.3018
     21 C         7.15315   0.158067   -4.039628 C.3        1 UNL1     0.0026
     22 C         6.119602   1.108861   -3.433274 C.3        1 UNL1     0.0016
     23 C         7.289381   -1.562728   -5.793002 C.3        1 UNL1     0.0012
     24 C         6.344056   -2.473097   -6.592593 C.3        1 UNL1     -0.0339
     25 C         6.661063   -2.430693   -8.096509 C.3        1 UNL1     -0.0615
     26 C         6.402042   -3.890042   -6.048823 C.3        1 UNL1     -0.0615
     27 C         5.130524   7.954799   -5.904038 C.ar        1 UNL1     0.1347
     28 C         4.011023   8.430734   -5.245059 C.ar        1 UNL1     0.0342
     29 C         3.438099   7.519567   -4.332537 C.ar        1 UNL1     0.1435
     30 C         3.929079   6.226908   -4.144939 C.ar        1 UNL1     0.0774
     31 O         2.278832   7.794729   -3.695834 O.3        1 UNL1     -0.4436
     32 C         1.789898   6.515948   -3.263938 C.3        1 UNL1     0.3143
     33 C         3.014296   5.625673   -3.19707 C.2        1 UNL1     0.2504
     34 C         3.294151   9.718413   -5.541835 C.3        1 UNL1     -0.0327
     35 O         1.314438   6.672981   -1.921354 O.2        1 UNL1     -0.4528
     36 C         -1.488849   4.147344   -1.508036 C.3        1 UNL1     0.0854
     37 C         -1.45642   2.582366   -1.701209 C.3        1 UNL1     0.0236
     38 C         -1.958546   1.734652   -0.435905 C.3        1 UNL1     0.1131
     39 C         -1.356029   2.03047   0.996483 C.3        1 UNL1     0.0200
     40 C         0.283186   2.270953   1.190341 C.3        1 UNL1     0.0661
     41 C         1.512488   1.268271   0.589461 C.3        1 UNL1     0.0091
     42 C         3.205075   1.67644   0.011577 C.3        1 UNL1     0.0661
     43 C         6.734227   6.15664   -6.584048 C.2        1 UNL1     0.2131
     44 O         7.087666   6.681767   -7.624269 O.2        1 UNL1     -0.2851
     45 O         5.826987   8.804363   -6.761137 O.3        1 UNL1     -0.5056
     46 O         3.201191   4.652373   -2.501648 O.2        1 UNL1     -0.2836
     47 C         4.966454   3.153234   1.365991 C.3        1 UNL1     -0.0566
     48 O         3.854389   0.591941   0.787057 O.3        1 UNL1     -0.3909
     49 C         0.915892   0.320269   -0.426835 C.3        1 UNL1     -0.0577
     50 O         0.619232   3.627377   0.978425 O.3        1 UNL1     -0.3910
     51 O         -1.783373   4.601417   -0.206305 O.3        1 UNL1     -0.3753
     52 C         -0.242651   2.129212   -2.576632 C.3        1 UNL1     -0.0564
     53 O         -2.251136   0.297404   -0.753765 O.3        1 UNL1     -0.4608
     54 C         -2.319933   -0.721058   0.160529 C.2        1 UNL1     0.3042
     55 O         -1.468292   -1.579476   0.387822 O.2        1 UNL1     -0.2512
     56 C         -3.574572   -0.703971   0.986546 C.3        1 UNL1     0.0332
     57 C         -2.350294   3.039639   1.738904 C.3        1 UNL1     -0.0567
     58 C         0.85961   6.001297   -4.386983 C.3        1 UNL1     0.0210
     59 C         -3.078748   5.179357   -0.051856 C.3        1 UNL1     0.0372
     60 C         -0.256854   4.86029   -1.942843 C.2        1 UNL1     -0.0208
     61 C         0.438747   5.827998   -1.344157 C.2        1 UNL1     0.0882
     62 H         4.088449   3.564567   -0.542996 H        1 UNL1     0.0365
     63 H         5.679285   4.278098   -1.606173 H        1 UNL1     0.0576
     64 H         8.118171   2.412318   -1.346418 H        1 UNL1     0.0615
     65 H         7.58675   4.997793   -3.016979 H        1 UNL1     0.0622
     66 H         -2.288781   4.491702   -2.178536 H        1 UNL1     0.0645
     67 H         -2.261258   2.385546   -2.430631 H        1 UNL1     0.0362
     68 H         -3.003906   2.076024   -0.388905 H        1 UNL1     0.0741
     69 H         -1.548381   1.180327   1.637314 H        1 UNL1     0.0359
     70 H         0.368014   2.132772   2.285225 H        1 UNL1     0.0600
     71 H         1.654193   0.594846   1.457433 H        1 UNL1     0.0348
     72 H         2.881276   2.528061   0.627377 H        1 UNL1     0.0602
     73 H         -0.021443   4.575542   -2.938206 H        1 UNL1     0.0628
     74 H         0.298589   6.137531   -0.307922 H        1 UNL1     0.1022
     75 H         11.412632   3.540144   -3.323807 H        1 UNL1     0.0279
     76 H         10.617175   2.407356   -4.342306 H        1 UNL1     0.0279
     77 H         11.207383   4.001773   -4.962618 H        1 UNL1     0.0279
     78 H         8.851481   3.67414   -6.207771 H        1 UNL1     0.1553
     79 H         7.783972   2.302592   -5.256192 H        1 UNL1     0.1484
     80 H         4.238276   0.936297   -5.284059 H        1 UNL1     0.0317
     81 H         4.78202   2.191032   -6.388553 H        1 UNL1     0.0317
     82 H         6.999069   1.053995   -6.681038 H        1 UNL1     0.0428
     83 H         5.649164   0.021139   -7.096575 H        1 UNL1     0.0428
     84 H         7.390448   -0.572569   -3.260095 H        1 UNL1     0.0428
     85 H         8.116023   0.642277   -4.253479 H        1 UNL1     0.0428
     86 H         6.530803   1.420876   -2.491176 H        1 UNL1     0.0317
     87 H         5.220417   0.550615   -3.145307 H        1 UNL1     0.0317
     88 H         8.058116   -1.173477   -6.473314 H        1 UNL1     0.0429
     89 H         7.810152   -2.125111   -5.007319 H        1 UNL1     0.0429
     90 H         5.310946   -2.13726   -6.4439 H        1 UNL1     0.0308
     91 H         7.735942   -2.522258   -8.279142 H        1 UNL1     0.0233
     92 H         6.138102   -3.231692   -8.62426 H        1 UNL1     0.0233
     93 H         6.337438   -1.493478   -8.565263 H        1 UNL1     0.0233
     94 H         6.062856   -4.600905   -6.810047 H        1 UNL1     0.0233
     95 H         7.431401   -4.146399   -5.782994 H        1 UNL1     0.0233
     96 H         5.770058   -4.003928   -5.163614 H        1 UNL1     0.0233
     97 H         2.377873   9.816416   -4.967327 H        1 UNL1     0.0280
     98 H         3.901743   10.597666   -5.290833 H        1 UNL1     0.0280
     99 H         3.036503   9.758995   -6.612847 H        1 UNL1     0.0280
     100 H         5.287979   9.261378   -7.382611 H        1 UNL1     0.2922
     101 H         4.160019   2.758216   1.983469 H        1 UNL1     0.0236
     102 H         5.112026   4.222182   1.518121 H        1 UNL1     0.0236
     103 H         5.880961   2.685208   1.767016 H        1 UNL1     0.0236
     104 H         4.077421   0.951913   1.667765 H        1 UNL1     0.2098
     105 H         0.693579   0.775042   -1.388901 H        1 UNL1     0.0234
     106 H         1.472218   -0.606496   -0.566604 H        1 UNL1     0.0234
     107 H         0.0   -0.0   0.0 H        1 UNL1     0.0234
     108 H         0.5697   3.791732   0.017019 H        1 UNL1     0.2098
     109 H         -0.273579   2.561763   -3.586412 H        1 UNL1     0.0234
     110 H         0.726306   2.346557   -2.114434 H        1 UNL1     0.0234
     111 H         -0.231039   1.040499   -2.719867 H        1 UNL1     0.0234
     112 H         -3.978744   -1.717358   1.070435 H        1 UNL1     0.0342
     113 H         -3.411486   -0.265727   1.970003 H        1 UNL1     0.0342
     114 H         -4.31951   -0.086292   0.466253 H        1 UNL1     0.0342
     115 H         -3.385718   2.672172   1.731577 H        1 UNL1     0.0234
     116 H         -2.081722   3.243958   2.777255 H        1 UNL1     0.0234
     117 H         -2.463782   4.006916   1.21983 H        1 UNL1     0.0234
     118 H         -0.198621   5.982461   -4.072662 H        1 UNL1     0.0309
     119 H         0.947518   6.575697   -5.314635 H        1 UNL1     0.0309
     120 H         1.061891   4.958684   -4.655586 H        1 UNL1     0.0309
     121 H         -3.031559   5.87538   0.785212 H        1 UNL1     0.0524
     122 H         -3.390619   5.751041   -0.941772 H        1 UNL1     0.0524
     123 H         -3.814668   4.405048   0.145531 H        1 UNL1     0.0524
@<TRIPOS>BOND
     1     1     2    1
     2     1    42    1
     3     2     3    2
     4     3     4    1
     5     4     5    2
     6     5     7    1
     7     6    75    1
     8     6    76    1
     9     6    77    1
    10     7     9   am
    11     9    10    1
    12    10    11    2
    13    10    43    1
    14    11    14    1
    15    11    15    1
    16    12    13   ar
    17    12    27   ar
    18    12    43    1
    19    13    14    1
    20    13    30   ar
    21    14    17    2
    22    15    16    1
    23    16    17    1
    24    16    18    1
    25    16    22    1
    26    18    19    1
    27    19    20    1
    28    20    21    1
    29    21    22    1
    30    23    24    1
    31    23    88    1
    32    23    89    1
    33    24    25    1
    34    24    26    1
    35    24    90    1
    36    25    91    1
    37    25    92    1
    38    25    93    1
    39    26    94    1
    40    26    95    1
    41    26    96    1
    42    27    28   ar
    43    28    29   ar
    44    29    30   ar
    45    29    31    1
    46    30    33    1
    47    31    32    1
    48    32    33    1
    49    32    35    1
    50    34    97    1
    51    34    98    1
    52    34    99    1
    53    35    61    1
    54    36    37    1
    55    36    60    1
    56    37    38    1
    57    38    39    1
    58    39    40    1
    59    40    41    1
    60    41    42    1
    61    45   100    1
    62    47   101    1
    63    47   102    1
    64    47   103    1
    65    48   104    1
    66    49   105    1
    67    49   106    1
    68    49   107    1
    69    50   108    1
    70    51    59    1
    71    52   109    1
    72    52   110    1
    73    52   111    1
    74    53    54    1
    75    54    55    2
    76    54    56    1
    77    56   112    1
    78    56   113    1
    79    56   114    1
    80    57   115    1
    81    57   116    1
    82    57   117    1
    83    58   118    1
    84    58   119    1
    85    58   120    1
    86    59   121    1
    87    59   122    1
    88    59   123    1
    89    60    61    2
    90     1    47    1
    91     1    62    1
    92     2    63    1
    93     3    64    1
    94     4    65    1
    95     5     6    1
    96     7     8    2
    97     9    78    1
    98    15    79    1
    99    18    80    1
   100    18    81    1
   101    19    82    1
   102    19    83    1
   103    20    23    1
   104    21    84    1
   105    21    85    1
   106    22    86    1
   107    22    87    1
   108    27    45    1
   109    28    34    1
   110    32    58    1
   111    33    46    2
   112    36    51    1
   113    36    66    1
   114    37    52    1
   115    37    67    1
   116    38    53    1
   117    38    68    1
   118    42    48    1
   119    42    72    1
   120    43    44    2
   121    60    73    1
   122    61    74    1
   123    39    69    1
   124    39    57    1
   125    40    70    1
   126    40    50    1
   127    41    71    1
   128    41    49    1
