@<TRIPOS>MOLECULE
*****
 123 128 0 0 0
SMALL
GASTEIGER

@<TRIPOS>ATOM
     1 C         -1.067794   0.243456   3.980685 C.3        1 UNL1     0.0009
     2 C         -2.665526   -0.27205   4.767161 C.2        1 UNL1     -0.0787
     3 C         -3.996567   0.051358   5.23597 C.2        1 UNL1     -0.0649
     4 C         -5.174344   -1.006817   5.835525 C.2        1 UNL1     -0.0542
     5 C         -6.556955   -1.180916   6.090776 C.2        1 UNL1     0.0115
     6 C         -7.927073   -0.450518   6.14196 C.3        1 UNL1     -0.0348
     7 C         -7.12474   -2.665719   6.314316 C.2        1 UNL1     0.2441
     8 O         -7.389062   -3.117608   7.419963 O.2        1 UNL1     -0.2702
     9 N         -7.54399   -3.318649   5.142111 N.am        1 UNL1     -0.2772
     10 C         -6.489987   -3.985023   4.560437 C.2        1 UNL1     0.1049
     11 C         -5.694901   -3.260458   3.794235 C.2        1 UNL1     0.0801
     12 C         -4.621301   -5.568496   5.068337 C.ar        1 UNL1     0.0753
     13 C         -3.758489   -4.640333   4.402997 C.ar        1 UNL1     0.0305
     14 C         -4.29027   -3.520139   3.630064 C.2        1 UNL1     0.0924
     15 N         -5.857549   -2.015911   3.313426 N.pl3        1 UNL1     -0.3170
     16 C         -4.783339   -1.757014   2.391852 C.3        1 UNL1     0.1275
     17 N         -3.65147   -2.630052   2.876003 N.2        1 UNL1     -0.2557
     18 C         -5.203525   -2.320619   1.037786 C.3        1 UNL1     0.0016
     19 C         -6.533116   -1.697703   0.643132 C.3        1 UNL1     0.0026
     20 N         -6.372229   -0.251549   0.581638 N.3        1 UNL1     -0.3018
     21 C         -5.910225   0.37589   1.821493 C.3        1 UNL1     0.0026
     22 C         -4.571296   -0.2615   2.196856 C.3        1 UNL1     0.0016
     23 C         -7.483864   0.41235   -0.069631 C.3        1 UNL1     0.0012
     24 C         -8.005268   -0.434316   -1.241403 C.3        1 UNL1     -0.0339
     25 C         -9.215407   -1.286407   -0.824796 C.3        1 UNL1     -0.0615
     26 C         -8.331962   0.459655   -2.424985 C.3        1 UNL1     -0.0615
     27 C         -4.112953   -6.700434   5.701122 C.ar        1 UNL1     0.1347
     28 C         -2.769236   -7.029787   5.701334 C.ar        1 UNL1     0.0342
     29 C         -1.933308   -6.076241   5.082352 C.ar        1 UNL1     0.1435
     30 C         -2.424602   -4.919546   4.475799 C.ar        1 UNL1     0.0774
     31 O         -0.613946   -6.305549   4.904281 O.3        1 UNL1     -0.4436
     32 C         -0.223388   -5.390956   3.868976 C.3        1 UNL1     0.3143
     33 C         -1.253922   -4.280824   3.91161 C.2        1 UNL1     0.2504
     34 C         -2.18366   -8.344122   6.13691 C.3        1 UNL1     -0.0327
     35 O         1.028236   -4.813575   4.260538 O.2        1 UNL1     -0.4528
     36 C         2.865547   -4.025573   1.033863 C.3        1 UNL1     0.0854
     37 C         2.411233   -3.121672   -0.17613 C.3        1 UNL1     0.0236
     38 C         3.436435   -1.952669   -0.568733 C.3        1 UNL1     0.1131
     39 C         3.980699   -0.976853   0.551012 C.3        1 UNL1     0.0200
     40 C         2.947987   -0.352994   1.702854 C.3        1 UNL1     0.0661
     41 C         1.458545   0.399785   1.39872 C.3        1 UNL1     0.0091
     42 C         -0.081609   0.436477   2.394702 C.3        1 UNL1     0.0661
     43 C         -6.08415   -5.332959   4.985547 C.2        1 UNL1     0.2131
     44 O         -6.916816   -6.206184   5.149507 O.2        1 UNL1     -0.2851
     45 O         -5.015765   -7.528781   6.364606 O.3        1 UNL1     -0.5056
     46 O         -1.129753   -3.124116   3.576253 O.2        1 UNL1     -0.2836
     47 C         -0.209903   1.0578   4.986094 C.3        1 UNL1     -0.0566
     48 O         -0.267203   1.901834   2.262787 O.3        1 UNL1     -0.3909
     49 C         1.052839   0.119111   -0.031007 C.3        1 UNL1     -0.0577
     50 O         2.827766   -1.236626   2.799423 O.3        1 UNL1     -0.3910
     51 O         4.015512   -3.595242   1.726559 O.3        1 UNL1     -0.3753
     52 C         0.862158   -2.909593   -0.194461 C.3        1 UNL1     -0.0564
     53 O         3.165103   -1.342182   -1.912612 O.3        1 UNL1     -0.4608
     54 C         3.303335   -0.015224   -2.225668 C.2        1 UNL1     0.3042
     55 O         3.043992   0.951812   -1.51053 O.2        1 UNL1     -0.2512
     56 C         3.893647   0.223353   -3.586303 C.3        1 UNL1     0.0332
     57 C         5.390433   -1.54837   1.045171 C.3        1 UNL1     -0.0567
     58 C         -0.368511   -6.155307   2.532475 C.3        1 UNL1     0.0210
     59 C         5.178162   -4.394207   1.512628 C.3        1 UNL1     0.0372
     60 C         1.816372   -4.278021   2.058882 C.2        1 UNL1     -0.0208
     61 C         1.882075   -4.240966   3.390443 C.2        1 UNL1     0.0882
     62 H         -0.723052   -0.795646   4.04496 H        1 UNL1     0.0365
     63 H         -2.44382   -1.311996   5.015819 H        1 UNL1     0.0576
     64 H         -4.432427   1.041228   5.083353 H        1 UNL1     0.0615
     65 H         -4.621846   -1.930976   6.025683 H        1 UNL1     0.0622
     66 H         3.085745   -5.002593   0.581104 H        1 UNL1     0.0645
     67 H         2.491294   -3.787453   -1.052992 H        1 UNL1     0.0362
     68 H         4.302207   -2.561245   -0.871384 H        1 UNL1     0.0741
     69 H         4.372331   -0.086863   0.076722 H        1 UNL1     0.0359
     70 H         3.569281   0.479393   2.085198 H        1 UNL1     0.0600
     71 H         1.786396   1.455472   1.32803 H        1 UNL1     0.0348
     72 H         0.722196   0.152966   3.089565 H        1 UNL1     0.0602
     73 H         0.941729   -4.643547   1.580721 H        1 UNL1     0.0628
     74 H         2.718031   -3.82704   3.955314 H        1 UNL1     0.1022
     75 H         -7.786124   0.653795   6.054432 H        1 UNL1     0.0279
     76 H         -8.620734   -0.663101   5.331583 H        1 UNL1     0.0279
     77 H         -8.414713   -0.529621   7.124635 H        1 UNL1     0.0279
     78 H         -7.880843   -2.632333   4.470115 H        1 UNL1     0.1553
     79 H         -6.745619   -1.552087   3.25745 H        1 UNL1     0.1484
     80 H         -4.422698   -2.098785   0.300313 H        1 UNL1     0.0317
     81 H         -5.294785   -3.411311   1.079201 H        1 UNL1     0.0317
     82 H         -7.336612   -1.977282   1.340372 H        1 UNL1     0.0428
     83 H         -6.814996   -2.114717   -0.32418 H        1 UNL1     0.0428
     84 H         -5.721222   1.449633   1.725749 H        1 UNL1     0.0428
     85 H         -6.662684   0.307533   2.619271 H        1 UNL1     0.0428
     86 H         -4.201401   0.31001   3.027845 H        1 UNL1     0.0317
     87 H         -3.832001   -0.071668   1.409136 H        1 UNL1     0.0317
     88 H         -8.291356   0.526844   0.665313 H        1 UNL1     0.0429
     89 H         -7.206494   1.420861   -0.402415 H        1 UNL1     0.0429
     90 H         -7.207538   -1.104343   -1.583317 H        1 UNL1     0.0308
     91 H         -9.6201   -1.844681   -1.6743 H        1 UNL1     0.0233
     92 H         -8.940139   -1.987422   -0.033333 H        1 UNL1     0.0233
     93 H         -10.035643   -0.67891   -0.423553 H        1 UNL1     0.0233
     94 H         -8.564587   1.472953   -2.080098 H        1 UNL1     0.0233
     95 H         -7.470384   0.521312   -3.09569 H        1 UNL1     0.0233
     96 H         -9.190152   0.080275   -2.986723 H        1 UNL1     0.0233
     97 H         -1.118145   -8.402179   5.935574 H        1 UNL1     0.0280
     98 H         -2.294939   -8.509254   7.216541 H        1 UNL1     0.0280
     99 H         -2.682355   -9.16678   5.598734 H        1 UNL1     0.0280
     100 H         -5.761014   -7.083833   6.728265 H        1 UNL1     0.2922
     101 H         0.808886   1.149533   4.610181 H        1 UNL1     0.0236
     102 H         -0.237752   0.65497   5.997991 H        1 UNL1     0.0236
     103 H         -0.565451   2.096801   5.087369 H        1 UNL1     0.0236
     104 H         0.407638   2.229417   1.636489 H        1 UNL1     0.2098
     105 H         1.276315   0.923411   -0.727407 H        1 UNL1     0.0234
     106 H         1.407561   -0.832539   -0.426558 H        1 UNL1     0.0234
     107 H         0.0   -0.0   0.0 H        1 UNL1     0.0234
     108 H         3.599094   -1.086083   3.379215 H        1 UNL1     0.2098
     109 H         0.31385   -3.856474   -0.296866 H        1 UNL1     0.0234
     110 H         0.491976   -2.364605   0.680581 H        1 UNL1     0.0234
     111 H         0.548412   -2.290873   -1.045751 H        1 UNL1     0.0234
     112 H         3.965339   1.298348   -3.777594 H        1 UNL1     0.0342
     113 H         4.86264   -0.259692   -3.702764 H        1 UNL1     0.0342
     114 H         3.214816   -0.207434   -4.335152 H        1 UNL1     0.0342
     115 H         5.333475   -1.948368   2.066907 H        1 UNL1     0.0234
     116 H         5.799089   -2.334454   0.40711 H        1 UNL1     0.0234
     117 H         6.163549   -0.769823   1.16391 H        1 UNL1     0.0234
     118 H         0.609584   -6.460143   2.120878 H        1 UNL1     0.0309
     119 H         -1.014932   -7.035369   2.608858 H        1 UNL1     0.0309
     120 H         -0.794708   -5.53413   1.737112 H        1 UNL1     0.0309
     121 H         5.998029   -3.722321   1.260156 H        1 UNL1     0.0524
     122 H         5.473473   -4.953495   2.415969 H        1 UNL1     0.0524
     123 H         5.007007   -5.097609   0.702673 H        1 UNL1     0.0524
@<TRIPOS>BOND
     1     1     2    1
     2     1    42    1
     3     2     3    2
     4     3     4    1
     5     4     5    2
     6     5     7    1
     7     6    75    1
     8     6    76    1
     9     6    77    1
    10     7     9   am
    11     9    10    1
    12    10    11    2
    13    10    43    1
    14    11    14    1
    15    11    15    1
    16    12    13   ar
    17    12    27   ar
    18    12    43    1
    19    13    14    1
    20    13    30   ar
    21    14    17    2
    22    15    16    1
    23    16    17    1
    24    16    18    1
    25    16    22    1
    26    18    19    1
    27    19    20    1
    28    20    21    1
    29    21    22    1
    30    23    24    1
    31    23    88    1
    32    23    89    1
    33    24    25    1
    34    24    26    1
    35    24    90    1
    36    25    91    1
    37    25    92    1
    38    25    93    1
    39    26    94    1
    40    26    95    1
    41    26    96    1
    42    27    28   ar
    43    28    29   ar
    44    29    30   ar
    45    29    31    1
    46    30    33    1
    47    31    32    1
    48    32    33    1
    49    32    35    1
    50    34    97    1
    51    34    98    1
    52    34    99    1
    53    35    61    1
    54    36    37    1
    55    36    60    1
    56    37    38    1
    57    38    39    1
    58    39    40    1
    59    40    41    1
    60    41    42    1
    61    45   100    1
    62    47   101    1
    63    47   102    1
    64    47   103    1
    65    48   104    1
    66    49   105    1
    67    49   106    1
    68    49   107    1
    69    50   108    1
    70    51    59    1
    71    52   109    1
    72    52   110    1
    73    52   111    1
    74    53    54    1
    75    54    55    2
    76    54    56    1
    77    56   112    1
    78    56   113    1
    79    56   114    1
    80    57   115    1
    81    57   116    1
    82    57   117    1
    83    58   118    1
    84    58   119    1
    85    58   120    1
    86    59   121    1
    87    59   122    1
    88    59   123    1
    89    60    61    2
    90     1    47    1
    91     1    62    1
    92     2    63    1
    93     3    64    1
    94     4    65    1
    95     5     6    1
    96     7     8    2
    97     9    78    1
    98    15    79    1
    99    18    80    1
   100    18    81    1
   101    19    82    1
   102    19    83    1
   103    20    23    1
   104    21    84    1
   105    21    85    1
   106    22    86    1
   107    22    87    1
   108    27    45    1
   109    28    34    1
   110    32    58    1
   111    33    46    2
   112    36    51    1
   113    36    66    1
   114    37    52    1
   115    37    67    1
   116    38    53    1
   117    38    68    1
   118    42    48    1
   119    42    72    1
   120    43    44    2
   121    60    73    1
   122    61    74    1
   123    39    69    1
   124    39    57    1
   125    40    70    1
   126    40    50    1
   127    41    71    1
   128    41    49    1
