@<TRIPOS>MOLECULE
*****
 123 128 0 0 0
SMALL
GASTEIGER

@<TRIPOS>ATOM
     1 C         5.142862   0.542071   1.804551 C.3        1 UNL1     0.0009
     2 C         6.899778   0.918532   1.347867 C.2        1 UNL1     -0.0787
     3 C         8.243272   0.470154   1.047823 C.2        1 UNL1     -0.0649
     4 C         9.558126   1.399792   0.525053 C.2        1 UNL1     -0.0542
     5 C         10.821136   1.367435   -0.115913 C.2        1 UNL1     0.0115
     6 C         11.941637   0.426531   -0.637929 C.3        1 UNL1     -0.0348
     7 C         11.427219   2.731111   -0.707554 C.2        1 UNL1     0.2441
     8 O         12.305141   3.369162   -0.143045 O.2        1 UNL1     -0.2702
     9 N         11.070415   3.00521   -2.039362 N.am        1 UNL1     -0.2772
     10 C         9.885569   3.703328   -2.085115 C.2        1 UNL1     0.1049
     11 C         8.781814   2.982362   -2.006656 C.2        1 UNL1     0.0801
     12 C         8.709421   5.681058   -1.103997 C.ar        1 UNL1     0.0753
     13 C         7.609274   4.801645   -0.849204 C.ar        1 UNL1     0.0305
     14 C         7.560636   3.454091   -1.412037 C.2        1 UNL1     0.0924
     15 N         8.610371   1.652449   -2.098674 N.pl3        1 UNL1     -0.3170
     16 C         7.195416   1.392194   -2.119205 C.3        1 UNL1     0.1275
     17 N         6.587503   2.548762   -1.36388 N.2        1 UNL1     -0.2557
     18 C         6.729638   1.538747   -3.564637 C.3        1 UNL1     0.0016
     19 C         7.552463   0.604868   -4.437802 C.3        1 UNL1     0.0026
     20 N         7.369881   -0.760238   -3.964328 N.3        1 UNL1     -0.3018
     21 C         7.733134   -0.986376   -2.563872 C.3        1 UNL1     0.0026
     22 C         6.891464   -0.041399   -1.70451 C.3        1 UNL1     0.0016
     23 C         7.864137   -1.752006   -4.898538 C.3        1 UNL1     0.0012
     24 C         6.968447   -1.810475   -6.145967 C.3        1 UNL1     -0.0339
     25 C         7.576031   -1.013993   -7.312378 C.3        1 UNL1     -0.0615
     26 C         6.707193   -3.255929   -6.532215 C.3        1 UNL1     -0.0615
     27 C         8.693228   7.003033   -0.665547 C.ar        1 UNL1     0.1347
     28 C         7.619934   7.567971   -1.4e-05 C.ar        1 UNL1     0.0342
     29 C         6.568748   6.670038   0.282634 C.ar        1 UNL1     0.1435
     30 C         6.586658   5.333671   -0.118643 C.ar        1 UNL1     0.0774
     31 O         5.40727   7.093659   0.827172 O.3        1 UNL1     -0.4436
     32 C         4.464792   6.053596   0.525715 C.3        1 UNL1     0.3143
     33 C         5.303515   4.811407   0.302725 C.2        1 UNL1     0.2504
     34 C         7.426097   9.032869   0.276758 C.3        1 UNL1     -0.0327
     35 O         3.688639   5.826128   1.70855 O.2        1 UNL1     -0.4528
     36 C         0.278183   4.669514   0.508916 C.3        1 UNL1     0.0854
     37 C         -0.091233   3.441797   -0.40965 C.3        1 UNL1     0.0236
     38 C         -1.161383   2.425785   0.218239 C.3        1 UNL1     0.1131
     39 C         -0.939915   1.854538   1.676628 C.3        1 UNL1     0.0200
     40 C         0.569098   1.332907   2.159555 C.3        1 UNL1     0.0661
     41 C         1.572658   0.266184   1.303646 C.3        1 UNL1     0.0091
     42 C         3.402184   0.174583   1.204422 C.3        1 UNL1     0.0661
     43 C         9.829967   5.164393   -1.928433 C.2        1 UNL1     0.2131
     44 O         10.605674   5.880958   -2.534692 O.2        1 UNL1     -0.2851
     45 O         9.82317   7.779252   -0.91485 O.3        1 UNL1     -0.5056
     46 O         4.990077   3.652472   0.459184 O.2        1 UNL1     -0.2836
     47 C         5.046447   0.156996   3.305352 C.3        1 UNL1     -0.0566
     48 O         3.455066   -1.289719   1.432759 O.3        1 UNL1     -0.3909
     49 C         1.046759   0.127774   -0.107654 C.3        1 UNL1     -0.0577
     50 O         1.331098   2.407961   2.670768 O.3        1 UNL1     -0.3910
     51 O         -0.234794   4.633187   1.821534 O.3        1 UNL1     -0.3753
     52 C         1.137235   2.946375   -1.240537 C.3        1 UNL1     -0.0564
     53 O         -1.754089   1.481355   -0.786289 O.3        1 UNL1     -0.4608
     54 C         -2.379863   0.298121   -0.492531 C.2        1 UNL1     0.3042
     55 O         -1.982199   -0.839154   -0.742147 O.2        1 UNL1     -0.2512
     56 C         -3.663793   0.469527   0.268295 C.3        1 UNL1     0.0332
     57 C         -1.768124   2.777296   2.686955 C.3        1 UNL1     -0.0567
     58 C         3.791332   6.447155   -0.80961 C.3        1 UNL1     0.0210
     59 C         -0.424813   5.911426   2.4264 C.3        1 UNL1     0.0372
     60 C         1.734812   4.952213   0.624992 C.2        1 UNL1     -0.0208
     61 C         2.477465   5.237167   1.695511 C.2        1 UNL1     0.0882
     62 H         4.917   1.613372   1.741213 H        1 UNL1     0.0365
     63 H         6.882754   2.010372   1.355948 H        1 UNL1     0.0576
     64 H         8.489961   -0.591559   0.976978 H        1 UNL1     0.0615
     65 H         9.239598   2.429182   0.710467 H        1 UNL1     0.0622
     66 H         -0.15754   5.538697   -0.003639 H        1 UNL1     0.0645
     67 H         -0.671684   3.88955   -1.234971 H        1 UNL1     0.0362
     68 H         -2.029249   3.098197   0.29694 H        1 UNL1     0.0741
     69 H         -1.547698   0.967973   1.799154 H        1 UNL1     0.0359
     70 H         0.289801   0.74235   3.053029 H        1 UNL1     0.0600
     71 H         1.255274   -0.697097   1.748972 H        1 UNL1     0.0348
     72 H         3.176335   0.755862   2.110195 H        1 UNL1     0.0602
     73 H         2.154518   5.027606   -0.347331 H        1 UNL1     0.0628
     74 H         2.14003   5.128413   2.726795 H        1 UNL1     0.1022
     75 H         11.660625   -0.642711   -0.480486 H        1 UNL1     0.0279
     76 H         12.145187   0.460443   -1.705864 H        1 UNL1     0.0279
     77 H         12.866126   0.4971   -0.046286 H        1 UNL1     0.0279
     78 H         10.930881   2.131624   -2.542804 H        1 UNL1     0.1553
     79 H         9.28348   1.031121   -2.508319 H        1 UNL1     0.1484
     80 H         5.660341   1.301804   -3.621464 H        1 UNL1     0.0317
     81 H         6.84026   2.572769   -3.90846 H        1 UNL1     0.0317
     82 H         8.616563   0.883415   -4.441879 H        1 UNL1     0.0428
     83 H         7.205227   0.726711   -5.464268 H        1 UNL1     0.0428
     84 H         7.511883   -1.99857   -2.211277 H        1 UNL1     0.0428
     85 H         8.81394   -0.87674   -2.399078 H        1 UNL1     0.0428
     86 H         7.084869   -0.325902   -0.686845 H        1 UNL1     0.0317
     87 H         5.825807   -0.267151   -1.832997 H        1 UNL1     0.0317
     88 H         8.875111   -1.456017   -5.207757 H        1 UNL1     0.0429
     89 H         7.948568   -2.738657   -4.425076 H        1 UNL1     0.0429
     90 H         5.988017   -1.383065   -5.90453 H        1 UNL1     0.0308
     91 H         8.577443   -1.376757   -7.562735 H        1 UNL1     0.0233
     92 H         6.939255   -1.079115   -8.19775 H        1 UNL1     0.0233
     93 H         7.672708   0.054155   -7.083144 H        1 UNL1     0.0233
     94 H         6.235533   -3.303681   -7.519683 H        1 UNL1     0.0233
     95 H         7.65122   -3.805691   -6.582589 H        1 UNL1     0.0233
     96 H         6.049559   -3.749104   -5.810922 H        1 UNL1     0.0233
     97 H         6.480827   9.232243   0.772687 H        1 UNL1     0.0280
     98 H         8.203694   9.435328   0.939047 H        1 UNL1     0.0280
     99 H         7.443314   9.593204   -0.672359 H        1 UNL1     0.0280
     100 H         9.651299   8.587747   -1.364761 H        1 UNL1     0.2922
     101 H         4.003901   -0.008474   3.576228 H        1 UNL1     0.0236
     102 H         5.531025   0.876518   3.964484 H        1 UNL1     0.0236
     103 H         5.546923   -0.802026   3.519811 H        1 UNL1     0.0236
     104 H         3.590989   -1.434309   2.389623 H        1 UNL1     0.2098
     105 H         1.212681   0.999081   -0.736227 H        1 UNL1     0.0234
     106 H         1.364232   -0.777375   -0.625189 H        1 UNL1     0.0234
     107 H         0.0   -0.0   0.0 H        1 UNL1     0.0234
     108 H         1.496478   3.023862   1.931117 H        1 UNL1     0.2098
     109 H         1.977573   2.643548   -0.600349 H        1 UNL1     0.0234
     110 H         0.890161   2.132204   -1.930336 H        1 UNL1     0.0234
     111 H         1.530445   3.737651   -1.892622 H        1 UNL1     0.0234
     112 H         -4.099687   -0.509763   0.488143 H        1 UNL1     0.0342
     113 H         -3.52548   1.049147   1.179752 H        1 UNL1     0.0342
     114 H         -4.370567   1.017055   -0.370334 H        1 UNL1     0.0342
     115 H         -2.839994   2.787249   2.44574 H        1 UNL1     0.0234
     116 H         -1.67008   2.487309   3.734974 H        1 UNL1     0.0234
     117 H         -1.521489   3.849929   2.605888 H        1 UNL1     0.0234
     118 H         2.962561   7.161395   -0.661269 H        1 UNL1     0.0309
     119 H         4.494205   6.860749   -1.539756 H        1 UNL1     0.0309
     120 H         3.307034   5.597191   -1.302683 H        1 UNL1     0.0309
     121 H         0.555442   6.375658   2.531023 H        1 UNL1     0.0524
     122 H         -1.044239   6.580066   1.805698 H        1 UNL1     0.0524
     123 H         -0.892894   5.800483   3.400404 H        1 UNL1     0.0524
@<TRIPOS>BOND
     1     1     2    1
     2     1    42    1
     3     2     3    2
     4     3     4    1
     5     4     5    2
     6     5     7    1
     7     6    75    1
     8     6    76    1
     9     6    77    1
    10     7     9   am
    11     9    10    1
    12    10    11    2
    13    10    43    1
    14    11    14    1
    15    11    15    1
    16    12    13   ar
    17    12    27   ar
    18    12    43    1
    19    13    14    1
    20    13    30   ar
    21    14    17    2
    22    15    16    1
    23    16    17    1
    24    16    18    1
    25    16    22    1
    26    18    19    1
    27    19    20    1
    28    20    21    1
    29    21    22    1
    30    23    24    1
    31    23    88    1
    32    23    89    1
    33    24    25    1
    34    24    26    1
    35    24    90    1
    36    25    91    1
    37    25    92    1
    38    25    93    1
    39    26    94    1
    40    26    95    1
    41    26    96    1
    42    27    28   ar
    43    28    29   ar
    44    29    30   ar
    45    29    31    1
    46    30    33    1
    47    31    32    1
    48    32    33    1
    49    32    35    1
    50    34    97    1
    51    34    98    1
    52    34    99    1
    53    35    61    1
    54    36    37    1
    55    36    60    1
    56    37    38    1
    57    38    39    1
    58    39    40    1
    59    40    41    1
    60    41    42    1
    61    45   100    1
    62    47   101    1
    63    47   102    1
    64    47   103    1
    65    48   104    1
    66    49   105    1
    67    49   106    1
    68    49   107    1
    69    50   108    1
    70    51    59    1
    71    52   109    1
    72    52   110    1
    73    52   111    1
    74    53    54    1
    75    54    55    2
    76    54    56    1
    77    56   112    1
    78    56   113    1
    79    56   114    1
    80    57   115    1
    81    57   116    1
    82    57   117    1
    83    58   118    1
    84    58   119    1
    85    58   120    1
    86    59   121    1
    87    59   122    1
    88    59   123    1
    89    60    61    2
    90     1    47    1
    91     1    62    1
    92     2    63    1
    93     3    64    1
    94     4    65    1
    95     5     6    1
    96     7     8    2
    97     9    78    1
    98    15    79    1
    99    18    80    1
   100    18    81    1
   101    19    82    1
   102    19    83    1
   103    20    23    1
   104    21    84    1
   105    21    85    1
   106    22    86    1
   107    22    87    1
   108    27    45    1
   109    28    34    1
   110    32    58    1
   111    33    46    2
   112    36    51    1
   113    36    66    1
   114    37    52    1
   115    37    67    1
   116    38    53    1
   117    38    68    1
   118    42    48    1
   119    42    72    1
   120    43    44    2
   121    60    73    1
   122    61    74    1
   123    39    69    1
   124    39    57    1
   125    40    70    1
   126    40    50    1
   127    41    71    1
   128    41    49    1
