@<TRIPOS>MOLECULE
*****
 123 128 0 0 0
SMALL
GASTEIGER

@<TRIPOS>ATOM
     1 C         -0.168387   3.499233   -2.309265 C.3        1 UNL1     0.0009
     2 C         -1.292849   4.953471   -2.068813 C.2        1 UNL1     -0.0787
     3 C         -2.462943   5.713785   -2.454622 C.2        1 UNL1     -0.0649
     4 C         -3.125413   7.067295   -1.682936 C.2        1 UNL1     -0.0542
     5 C         -4.28851   7.860793   -1.525947 C.2        1 UNL1     0.0115
     6 C         -5.714493   8.124378   -2.083099 C.3        1 UNL1     -0.0348
     7 C         -4.396425   8.838652   -0.25743 C.2        1 UNL1     0.2441
     8 O         -4.207507   10.045162   -0.329331 O.2        1 UNL1     -0.2702
     9 N         -4.976087   8.259683   0.884909 N.am        1 UNL1     -0.2772
     10 C         -4.014538   7.640337   1.649864 C.2        1 UNL1     0.1049
     11 C         -3.676502   6.417771   1.282053 C.2        1 UNL1     0.0801
     12 C         -1.75996   7.997408   2.672953 C.ar        1 UNL1     0.0753
     13 C         -1.377657   6.755415   2.073032 C.ar        1 UNL1     0.0305
     14 C         -2.363407   5.862348   1.468235 C.2        1 UNL1     0.0924
     15 N         -4.263755   5.586303   0.404373 N.pl3        1 UNL1     -0.3170
     16 C         -3.602992   4.311523   0.497018 C.3        1 UNL1     0.1275
     17 N         -2.205634   4.643064   0.960908 N.2        1 UNL1     -0.2557
     18 C         -4.258386   3.544636   1.64159 C.3        1 UNL1     0.0016
     19 C         -5.753091   3.459213   1.376733 C.3        1 UNL1     0.0026
     20 N         -5.964779   2.783276   0.104205 N.3        1 UNL1     -0.3018
     21 C         -5.319526   3.413478   -1.049426 C.3        1 UNL1     0.0026
     22 C         -3.818449   3.484838   -0.763822 C.3        1 UNL1     0.0016
     23 C         -7.343246   2.384985   -0.100332 C.3        1 UNL1     0.0012
     24 C         -8.299987   3.472392   0.41343 C.3        1 UNL1     -0.0339
     25 C         -9.191557   4.015945   -0.715157 C.3        1 UNL1     -0.0615
     26 C         -9.126289   2.935363   1.569114 C.3        1 UNL1     -0.0615
     27 C         -0.834512   8.785507   3.353075 C.ar        1 UNL1     0.1347
     28 C         0.487252   8.418411   3.532604 C.ar        1 UNL1     0.0342
     29 C         0.852353   7.215526   2.891564 C.ar        1 UNL1     0.1435
     30 C         -0.055424   6.433591   2.176205 C.ar        1 UNL1     0.0774
     31 O         2.075227   6.667988   3.064158 O.3        1 UNL1     -0.4436
     32 C         1.914363   5.293541   2.682199 C.3        1 UNL1     0.3143
     33 C         0.710246   5.276316   1.762406 C.2        1 UNL1     0.2504
     34 C         1.469123   9.082905   4.456984 C.3        1 UNL1     -0.0327
     35 O         3.05177   4.936435   1.887195 O.2        1 UNL1     -0.4528
     36 C         3.612718   1.229299   2.479283 C.3        1 UNL1     0.0854
     37 C         2.620796   0.023483   2.256527 C.3        1 UNL1     0.0236
     38 C         3.176929   -1.142455   1.306238 C.3        1 UNL1     0.1131
     39 C         3.78035   -0.779947   -0.110357 C.3        1 UNL1     0.0200
     40 C         3.016979   0.329027   -1.095181 C.3        1 UNL1     0.0661
     41 C         1.370306   0.32823   -1.502706 C.3        1 UNL1     0.0091
     42 C         0.230261   1.722294   -1.852396 C.3        1 UNL1     0.0661
     43 C         -3.194164   8.375456   2.624001 C.2        1 UNL1     0.2131
     44 O         -3.709661   9.162004   3.397527 O.2        1 UNL1     -0.2851
     45 O         -1.278021   10.00172   3.868405 O.3        1 UNL1     -0.5056
     46 O         0.452225   4.495976   0.87339 O.2        1 UNL1     -0.2836
     47 C         0.729785   3.712621   -3.557357 C.3        1 UNL1     -0.0566
     48 O         -0.327467   1.10733   -3.081166 O.3        1 UNL1     -0.3909
     49 C         0.638971   -0.618293   -0.577104 C.3        1 UNL1     -0.0577
     50 O         3.438826   1.64329   -0.791073 O.3        1 UNL1     -0.3910
     51 O         4.779795   1.221106   1.688526 O.3        1 UNL1     -0.3753
     52 C         1.131375   0.496875   2.206789 C.3        1 UNL1     -0.0564
     53 O         2.384304   -2.414144   1.389162 O.3        1 UNL1     -0.4608
     54 C         1.073219   -2.510081   1.77618 C.2        1 UNL1     0.3042
     55 O         0.50279   -1.858138   2.649918 O.2        1 UNL1     -0.2512
     56 C         0.279317   -3.499079   0.971 C.3        1 UNL1     0.0332
     57 C         5.366452   -0.660246   0.057352 C.3        1 UNL1     -0.0567
     58 C         1.566283   4.518349   3.97427 C.3        1 UNL1     0.0210
     59 C         5.792018   2.13671   2.104385 C.3        1 UNL1     0.0372
     60 C         3.004154   2.579567   2.332363 C.2        1 UNL1     -0.0208
     61 C         3.449482   3.663899   1.696239 C.2        1 UNL1     0.0882
     62 H         0.415733   3.831972   -1.442778 H        1 UNL1     0.0365
     63 H         -0.767949   5.487454   -1.273946 H        1 UNL1     0.0576
     64 H         -3.145834   5.359387   -3.229973 H        1 UNL1     0.0615
     65 H         -2.339037   7.384652   -0.992734 H        1 UNL1     0.0622
     66 H         3.914151   1.147687   3.533097 H        1 UNL1     0.0645
     67 H         2.593559   -0.485637   3.235616 H        1 UNL1     0.0362
     68 H         4.032982   -1.479575   1.910428 H        1 UNL1     0.0741
     69 H         3.792007   -1.672019   -0.722306 H        1 UNL1     0.0359
     70 H         3.507862   0.097186   -2.059724 H        1 UNL1     0.0600
     71 H         1.402901   -0.264607   -2.437821 H        1 UNL1     0.0348
     72 H         1.246612   2.122418   -1.979857 H        1 UNL1     0.0602
     73 H         2.139928   2.64179   2.945951 H        1 UNL1     0.0628
     74 H         4.29205   3.670185   1.003941 H        1 UNL1     0.1022
     75 H         -5.673315   8.829802   -2.947805 H        1 UNL1     0.0279
     76 H         -6.236842   7.268159   -2.503945 H        1 UNL1     0.0279
     77 H         -6.349928   8.681332   -1.379021 H        1 UNL1     0.0279
     78 H         -5.648865   7.549234   0.604358 H        1 UNL1     0.1553
     79 H         -5.212094   5.685707   0.091795 H        1 UNL1     0.1484
     80 H         -3.80602   2.547871   1.709335 H        1 UNL1     0.0317
     81 H         -4.072356   4.039141   2.601021 H        1 UNL1     0.0317
     82 H         -6.22465   4.45296   1.380328 H        1 UNL1     0.0428
     83 H         -6.200953   2.910236   2.205645 H        1 UNL1     0.0428
     84 H         -5.427122   2.8437   -1.977643 H        1 UNL1     0.0428
     85 H         -5.764166   4.390707   -1.28317 H        1 UNL1     0.0428
     86 H         -3.365971   3.826029   -1.676423 H        1 UNL1     0.0317
     87 H         -3.411787   2.473516   -0.641551 H        1 UNL1     0.0317
     88 H         -7.505569   2.257707   -1.178639 H        1 UNL1     0.0429
     89 H         -7.553086   1.417125   0.372941 H        1 UNL1     0.0429
     90 H         -7.713004   4.302015   0.824999 H        1 UNL1     0.0308
     91 H         -9.883534   3.250513   -1.079003 H        1 UNL1     0.0233
     92 H         -9.762623   4.882239   -0.373067 H        1 UNL1     0.0233
     93 H         -8.609445   4.355689   -1.580348 H        1 UNL1     0.0233
     94 H         -9.781659   2.129126   1.22226 H        1 UNL1     0.0233
     95 H         -8.468044   2.526346   2.340723 H        1 UNL1     0.0233
     96 H         -9.747125   3.718344   2.01349 H        1 UNL1     0.0233
     97 H         1.797582   8.417032   5.249422 H        1 UNL1     0.0280
     98 H         2.38069   9.40003   3.93379 H        1 UNL1     0.0280
     99 H         1.000144   9.966402   4.92022 H        1 UNL1     0.0280
     100 H         -1.182302   10.09027   4.800402 H        1 UNL1     0.2922
     101 H         1.599637   3.05857   -3.500514 H        1 UNL1     0.0236
     102 H         1.010512   4.754131   -3.71043 H        1 UNL1     0.0236
     103 H         0.219448   3.419161   -4.489896 H        1 UNL1     0.0236
     104 H         -0.802832   1.806472   -3.571267 H        1 UNL1     0.2098
     105 H         0.020413   -1.354262   -1.084595 H        1 UNL1     0.0234
     106 H         1.268827   -1.103655   0.168303 H        1 UNL1     0.0234
     107 H         0.0   0.0   0.0 H        1 UNL1     0.0234
     108 H         4.283765   1.571955   -0.306555 H        1 UNL1     0.2098
     109 H         0.995217   1.374455   1.559467 H        1 UNL1     0.0234
     110 H         0.438199   -0.294477   1.90181 H        1 UNL1     0.0234
     111 H         0.769707   0.799974   3.198391 H        1 UNL1     0.0234
     112 H         0.863798   -4.412009   0.821712 H        1 UNL1     0.0342
     113 H         -0.683017   -3.721852   1.429399 H        1 UNL1     0.0342
     114 H         0.083708   -3.059155   -0.016608 H        1 UNL1     0.0342
     115 H         5.877643   -0.615589   -0.914182 H        1 UNL1     0.0234
     116 H         5.687319   0.207298   0.637404 H        1 UNL1     0.0234
     117 H         5.830822   -1.557515   0.501437 H        1 UNL1     0.0234
     118 H         2.05673   4.952487   4.863085 H        1 UNL1     0.0309
     119 H         0.48923   4.449778   4.157189 H        1 UNL1     0.0309
     120 H         1.937494   3.487778   3.959083 H        1 UNL1     0.0309
     121 H         6.015473   2.787284   1.259295 H        1 UNL1     0.0524
     122 H         5.45958   2.777616   2.937909 H        1 UNL1     0.0524
     123 H         6.684632   1.597449   2.408575 H        1 UNL1     0.0524
@<TRIPOS>BOND
     1     1     2    1
     2     1    42    1
     3     2     3    2
     4     3     4    1
     5     4     5    2
     6     5     7    1
     7     6    75    1
     8     6    76    1
     9     6    77    1
    10     7     9   am
    11     9    10    1
    12    10    11    2
    13    10    43    1
    14    11    14    1
    15    11    15    1
    16    12    13   ar
    17    12    27   ar
    18    12    43    1
    19    13    14    1
    20    13    30   ar
    21    14    17    2
    22    15    16    1
    23    16    17    1
    24    16    18    1
    25    16    22    1
    26    18    19    1
    27    19    20    1
    28    20    21    1
    29    21    22    1
    30    23    24    1
    31    23    88    1
    32    23    89    1
    33    24    25    1
    34    24    26    1
    35    24    90    1
    36    25    91    1
    37    25    92    1
    38    25    93    1
    39    26    94    1
    40    26    95    1
    41    26    96    1
    42    27    28   ar
    43    28    29   ar
    44    29    30   ar
    45    29    31    1
    46    30    33    1
    47    31    32    1
    48    32    33    1
    49    32    35    1
    50    34    97    1
    51    34    98    1
    52    34    99    1
    53    35    61    1
    54    36    37    1
    55    36    60    1
    56    37    38    1
    57    38    39    1
    58    39    40    1
    59    40    41    1
    60    41    42    1
    61    45   100    1
    62    47   101    1
    63    47   102    1
    64    47   103    1
    65    48   104    1
    66    49   105    1
    67    49   106    1
    68    49   107    1
    69    50   108    1
    70    51    59    1
    71    52   109    1
    72    52   110    1
    73    52   111    1
    74    53    54    1
    75    54    55    2
    76    54    56    1
    77    56   112    1
    78    56   113    1
    79    56   114    1
    80    57   115    1
    81    57   116    1
    82    57   117    1
    83    58   118    1
    84    58   119    1
    85    58   120    1
    86    59   121    1
    87    59   122    1
    88    59   123    1
    89    60    61    2
    90     1    47    1
    91     1    62    1
    92     2    63    1
    93     3    64    1
    94     4    65    1
    95     5     6    1
    96     7     8    2
    97     9    78    1
    98    15    79    1
    99    18    80    1
   100    18    81    1
   101    19    82    1
   102    19    83    1
   103    20    23    1
   104    21    84    1
   105    21    85    1
   106    22    86    1
   107    22    87    1
   108    27    45    1
   109    28    34    1
   110    32    58    1
   111    33    46    2
   112    36    51    1
   113    36    66    1
   114    37    52    1
   115    37    67    1
   116    38    53    1
   117    38    68    1
   118    42    48    1
   119    42    72    1
   120    43    44    2
   121    60    73    1
   122    61    74    1
   123    39    69    1
   124    39    57    1
   125    40    70    1
   126    40    50    1
   127    41    71    1
   128    41    49    1
