@<TRIPOS>MOLECULE
*****
 123 128 0 0 0
SMALL
GASTEIGER

@<TRIPOS>ATOM
     1 C         -0.273585   3.705142   1.950067 C.3        1 UNL1     0.0009
     2 C         -1.587304   4.259096   3.135105 C.2        1 UNL1     -0.0787
     3 C         -2.777155   5.033468   3.419094 C.2        1 UNL1     -0.0649
     4 C         -3.696614   5.044828   4.840651 C.2        1 UNL1     -0.0542
     5 C         -4.957341   5.358882   5.405466 C.2        1 UNL1     0.0115
     6 C         -6.315667   6.062276   5.134337 C.3        1 UNL1     -0.0348
     7 C         -5.3537   4.720745   6.824152 C.2        1 UNL1     0.2441
     8 O         -5.303585   5.347982   7.873241 O.2        1 UNL1     -0.2702
     9 N         -6.009157   3.479416   6.749117 N.am        1 UNL1     -0.2772
     10 C         -5.092893   2.453106   6.727409 C.2        1 UNL1     0.1049
     11 C         -4.563136   2.170601   5.551071 C.2        1 UNL1     0.0801
     12 C         -3.057882   1.585825   7.895264 C.ar        1 UNL1     0.0753
     13 C         -2.450713   1.494702   6.602341 C.ar        1 UNL1     0.0305
     14 C         -3.230234   1.660063   5.377574 C.2        1 UNL1     0.0924
     15 N         -4.921135   2.579595   4.321808 N.pl3        1 UNL1     -0.3170
     16 C         -4.130293   1.848407   3.36777 C.3        1 UNL1     0.1275
     17 N         -2.859179   1.512682   4.108904 N.2        1 UNL1     -0.2557
     18 C         -4.837875   0.52014   3.117297 C.3        1 UNL1     0.0016
     19 C         -6.261428   0.805027   2.665718 C.3        1 UNL1     0.0026
     20 N         -6.215203   1.610831   1.45346 N.3        1 UNL1     -0.3018
     21 C         -5.499888   2.882413   1.579054 C.3        1 UNL1     0.0026
     22 C         -4.071192   2.57223   2.029064 C.3        1 UNL1     0.0016
     23 C         -7.494937   1.686199   0.777262 C.3        1 UNL1     0.0012
     24 C         -7.8527   0.330205   0.148739 C.3        1 UNL1     -0.0339
     25 C         -8.630593   0.507324   -1.165631 C.3        1 UNL1     -0.0615
     26 C         -6.595761   -0.498189   -0.05288 C.3        1 UNL1     -0.0615
     27 C         -2.335242   1.308105   9.053185 C.ar        1 UNL1     0.1347
     28 C         -1.015612   0.892771   9.042005 C.ar        1 UNL1     0.0342
     29 C         -0.424485   0.857435   7.761191 C.ar        1 UNL1     0.1435
     30 C         -1.125703   1.167876   6.595369 C.ar        1 UNL1     0.0774
     31 O         0.820592   0.368217   7.572895 O.3        1 UNL1     -0.4436
     32 C         0.879979   0.056819   6.17276 C.3        1 UNL1     0.3143
     33 C         -0.177046   0.930086   5.527534 C.2        1 UNL1     0.2504
     34 C         -0.25578   0.33843   10.214805 C.3        1 UNL1     -0.0327
     35 O         2.149538   0.511903   5.688641 O.2        1 UNL1     -0.4528
     36 C         3.067549   -1.812086   2.831296 C.3        1 UNL1     0.0854
     37 C         2.267743   -2.130492   1.509763 C.3        1 UNL1     0.0236
     38 C         3.084293   -1.889108   0.150821 C.3        1 UNL1     0.1131
     39 C         3.826472   -0.512249   -0.085185 C.3        1 UNL1     0.0200
     40 C         3.075948   0.92813   0.294895 C.3        1 UNL1     0.0661
     41 C         1.51214   1.38797   -0.174851 C.3        1 UNL1     0.0091
     42 C         0.270539   2.431387   0.682535 C.3        1 UNL1     0.0661
     43 C         -4.507146   1.898982   7.957124 C.2        1 UNL1     0.2131
     44 O         -5.213985   1.628838   8.911136 O.2        1 UNL1     -0.2851
     45 O         -2.987997   1.464887   10.274155 O.3        1 UNL1     -0.5056
     46 O         -0.215912   1.352823   4.393675 O.2        1 UNL1     -0.2836
     47 C         0.75352   4.844677   1.712377 C.3        1 UNL1     -0.0566
     48 O         -0.036815   3.249609   -0.515448 O.3        1 UNL1     -0.3909
     49 C         0.781288   0.170601   -0.695776 C.3        1 UNL1     -0.0577
     50 O         3.291036   1.26269   1.651187 O.3        1 UNL1     -0.3910
     51 O         4.323649   -1.195995   2.657877 O.3        1 UNL1     -0.3753
     52 C         0.752796   -1.767668   1.644828 C.3        1 UNL1     -0.0564
     53 O         2.446872   -2.519344   -1.05285 O.3        1 UNL1     -0.4608
     54 C         2.416113   -1.977993   -2.311389 C.2        1 UNL1     0.3042
     55 O         1.468157   -1.417973   -2.860567 O.2        1 UNL1     -0.2512
     56 C         3.731457   -2.057704   -3.032659 C.3        1 UNL1     0.0332
     57 C         5.348972   -0.701346   0.366934 C.3        1 UNL1     -0.0567
     58 C         0.455558   -1.423918   6.0356 C.3        1 UNL1     0.0210
     59 C         5.445456   -2.037684   2.920509 C.3        1 UNL1     0.0372
     60 C         2.326314   -1.000554   3.834863 C.2        1 UNL1     -0.0208
     61 C         2.71997   0.046803   4.560688 C.2        1 UNL1     0.0882
     62 H         0.142969   3.068036   2.739555 H        1 UNL1     0.0365
     63 H         -1.243511   3.78455   4.056561 H        1 UNL1     0.0576
     64 H         -3.300611   5.58654   2.636014 H        1 UNL1     0.0615
     65 H         -3.055359   4.542222   5.569802 H        1 UNL1     0.0622
     66 H         3.230609   -2.79351   3.298486 H        1 UNL1     0.0645
     67 H         2.169285   -3.229967   1.514304 H        1 UNL1     0.0362
     68 H         3.884641   -2.633169   0.282493 H        1 UNL1     0.0741
     69 H         4.028617   -0.402565   -1.142311 H        1 UNL1     0.0359
     70 H         3.717676   1.632071   -0.268765 H        1 UNL1     0.0600
     71 H         1.742718   1.922444   -1.117256 H        1 UNL1     0.0348
     72 H         1.239073   2.670529   1.145211 H        1 UNL1     0.0602
     73 H         1.385588   -1.454526   4.025105 H        1 UNL1     0.0628
     74 H         3.641836   0.603824   4.39002 H        1 UNL1     0.1022
     75 H         -6.36722   6.421421   4.078216 H        1 UNL1     0.0279
     76 H         -7.206847   5.443959   5.215272 H        1 UNL1     0.0279
     77 H         -6.424468   7.005428   5.68961 H        1 UNL1     0.0279
     78 H         -6.546985   3.428203   5.886449 H        1 UNL1     0.1553
     79 H         -5.823205   2.960358   4.102215 H        1 UNL1     0.1484
     80 H         -4.282092   -0.043447   2.358192 H        1 UNL1     0.0317
     81 H         -4.844917   -0.096277   4.022632 H        1 UNL1     0.0317
     82 H         -6.845415   1.305848   3.45188 H        1 UNL1     0.0428
     83 H         -6.748303   -0.155534   2.49447 H        1 UNL1     0.0428
     84 H         -5.410885   3.430625   0.635999 H        1 UNL1     0.0428
     85 H         -6.023163   3.581674   2.245788 H        1 UNL1     0.0428
     86 H         -3.54336   3.506643   1.981592 H        1 UNL1     0.0317
     87 H         -3.566007   1.956765   1.274685 H        1 UNL1     0.0317
     88 H         -8.260577   1.938913   1.522397 H        1 UNL1     0.0429
     89 H         -7.502016   2.485511   0.025048 H        1 UNL1     0.0429
     90 H         -8.476194   -0.237298   0.849744 H        1 UNL1     0.0308
     91 H         -8.16316   1.261406   -1.80592 H        1 UNL1     0.0233
     92 H         -8.690036   -0.438196   -1.709751 H        1 UNL1     0.0233
     93 H         -9.665527   0.829397   -0.998254 H        1 UNL1     0.0233
     94 H         -6.811982   -1.364241   -0.687733 H        1 UNL1     0.0233
     95 H         -5.828799   0.101679   -0.550765 H        1 UNL1     0.0233
     96 H         -6.198418   -0.858839   0.90002 H        1 UNL1     0.0233
     97 H         0.11988   -0.661832   10.020931 H        1 UNL1     0.0280
     98 H         0.623667   0.946859   10.463086 H        1 UNL1     0.0280
     99 H         -0.917142   0.294487   11.09558 H        1 UNL1     0.0280
     100 H         -3.441568   2.283456   10.373356 H        1 UNL1     0.2922
     101 H         1.677834   4.428891   1.311851 H        1 UNL1     0.0236
     102 H         0.929394   5.454778   2.597718 H        1 UNL1     0.0236
     103 H         0.410958   5.55726   0.943566 H        1 UNL1     0.0236
     104 H         0.52105   4.051   -0.476336 H        1 UNL1     0.2098
     105 H         0.330691   0.302706   -1.676246 H        1 UNL1     0.0234
     106 H         1.357882   -0.753849   -0.666461 H        1 UNL1     0.0234
     107 H         0.0   -0.0   0.0 H        1 UNL1     0.0234
     108 H         4.120938   0.829165   1.928831 H        1 UNL1     0.2098
     109 H         0.258933   -2.335257   2.445861 H        1 UNL1     0.0234
     110 H         0.578343   -0.696593   1.793514 H        1 UNL1     0.0234
     111 H         0.196896   -2.003096   0.727497 H        1 UNL1     0.0234
     112 H         3.569764   -2.373668   -4.067728 H        1 UNL1     0.0342
     113 H         4.278363   -1.116904   -2.992242 H        1 UNL1     0.0342
     114 H         4.347411   -2.822249   -2.53947 H        1 UNL1     0.0342
     115 H         6.032362   -0.08256   -0.230786 H        1 UNL1     0.0234
     116 H         5.531775   -0.470674   1.418324 H        1 UNL1     0.0234
     117 H         5.745315   -1.711534   0.166001 H        1 UNL1     0.0234
     118 H         1.300393   -2.072031   5.743691 H        1 UNL1     0.0309
     119 H         -0.005968   -1.824451   6.943769 H        1 UNL1     0.0309
     120 H         -0.271986   -1.579916   5.231579 H        1 UNL1     0.0309
     121 H         6.278641   -1.396637   3.207244 H        1 UNL1     0.0524
     122 H         5.259748   -2.733958   3.755227 H        1 UNL1     0.0524
     123 H         5.701241   -2.610621   2.033711 H        1 UNL1     0.0524
@<TRIPOS>BOND
     1     1     2    1
     2     1    42    1
     3     2     3    2
     4     3     4    1
     5     4     5    2
     6     5     7    1
     7     6    75    1
     8     6    76    1
     9     6    77    1
    10     7     9   am
    11     9    10    1
    12    10    11    2
    13    10    43    1
    14    11    14    1
    15    11    15    1
    16    12    13   ar
    17    12    27   ar
    18    12    43    1
    19    13    14    1
    20    13    30   ar
    21    14    17    2
    22    15    16    1
    23    16    17    1
    24    16    18    1
    25    16    22    1
    26    18    19    1
    27    19    20    1
    28    20    21    1
    29    21    22    1
    30    23    24    1
    31    23    88    1
    32    23    89    1
    33    24    25    1
    34    24    26    1
    35    24    90    1
    36    25    91    1
    37    25    92    1
    38    25    93    1
    39    26    94    1
    40    26    95    1
    41    26    96    1
    42    27    28   ar
    43    28    29   ar
    44    29    30   ar
    45    29    31    1
    46    30    33    1
    47    31    32    1
    48    32    33    1
    49    32    35    1
    50    34    97    1
    51    34    98    1
    52    34    99    1
    53    35    61    1
    54    36    37    1
    55    36    60    1
    56    37    38    1
    57    38    39    1
    58    39    40    1
    59    40    41    1
    60    41    42    1
    61    45   100    1
    62    47   101    1
    63    47   102    1
    64    47   103    1
    65    48   104    1
    66    49   105    1
    67    49   106    1
    68    49   107    1
    69    50   108    1
    70    51    59    1
    71    52   109    1
    72    52   110    1
    73    52   111    1
    74    53    54    1
    75    54    55    2
    76    54    56    1
    77    56   112    1
    78    56   113    1
    79    56   114    1
    80    57   115    1
    81    57   116    1
    82    57   117    1
    83    58   118    1
    84    58   119    1
    85    58   120    1
    86    59   121    1
    87    59   122    1
    88    59   123    1
    89    60    61    2
    90     1    47    1
    91     1    62    1
    92     2    63    1
    93     3    64    1
    94     4    65    1
    95     5     6    1
    96     7     8    2
    97     9    78    1
    98    15    79    1
    99    18    80    1
   100    18    81    1
   101    19    82    1
   102    19    83    1
   103    20    23    1
   104    21    84    1
   105    21    85    1
   106    22    86    1
   107    22    87    1
   108    27    45    1
   109    28    34    1
   110    32    58    1
   111    33    46    2
   112    36    51    1
   113    36    66    1
   114    37    52    1
   115    37    67    1
   116    38    53    1
   117    38    68    1
   118    42    48    1
   119    42    72    1
   120    43    44    2
   121    60    73    1
   122    61    74    1
   123    39    69    1
   124    39    57    1
   125    40    70    1
   126    40    50    1
   127    41    71    1
   128    41    49    1
