@<TRIPOS>MOLECULE
*****
 123 128 0 0 0
SMALL
GASTEIGER

@<TRIPOS>ATOM
     1 C         4.962967   2.254688   0.545058 C.3        1 UNL1     0.0009
     2 C         6.34967   3.137181   -0.312438 C.2        1 UNL1     -0.0787
     3 C         7.663706   3.120758   -0.919962 C.2        1 UNL1     -0.0649
     4 C         8.447724   4.378751   -1.737963 C.2        1 UNL1     -0.0542
     5 C         9.475074   4.702697   -2.658121 C.2        1 UNL1     0.0115
     6 C         10.697583   4.132529   -3.428642 C.3        1 UNL1     -0.0348
     7 C         9.450326   6.13807   -3.376508 C.2        1 UNL1     0.2441
     8 O         10.170895   7.065718   -3.034787 O.2        1 UNL1     -0.2702
     9 N         8.736904   6.178582   -4.587103 N.am        1 UNL1     -0.2772
     10 C         7.409351   6.454598   -4.353134 C.2        1 UNL1     0.1049
     11 C         6.651618   5.426536   -4.016755 C.2        1 UNL1     0.0801
     12 C         5.895879   8.021648   -3.123869 C.ar        1 UNL1     0.0753
     13 C         5.232837   6.85892   -2.616871 C.ar        1 UNL1     0.0305
     14 C         5.507516   5.527179   -3.151724 C.2        1 UNL1     0.0924
     15 N         6.912307   4.108876   -4.065125 N.pl3        1 UNL1     -0.3170
     16 C         5.69515   3.408363   -3.751974 C.3        1 UNL1     0.1275
     17 N         4.923698   4.364533   -2.875434 N.2        1 UNL1     -0.2557
     18 C         4.898556   3.284685   -5.04729 C.3        1 UNL1     0.0016
     19 C         5.767644   2.59839   -6.089055 C.3        1 UNL1     0.0026
     20 N         6.155246   1.288086   -5.585173 N.3        1 UNL1     -0.3018
     21 C         6.874015   1.300279   -4.309402 C.3        1 UNL1     0.0026
     22 C         5.980911   1.989937   -3.276623 C.3        1 UNL1     0.0016
     23 C         6.728364   0.437132   -6.608919 C.3        1 UNL1     0.0012
     24 C         5.648816   -0.002346   -7.610515 C.3        1 UNL1     -0.0339
     25 C         5.913286   -1.423289   -8.134951 C.3        1 UNL1     -0.0615
     26 C         4.273107   0.112773   -6.977307 C.3        1 UNL1     -0.0615
     27 C         5.542532   9.298763   -2.694636 C.ar        1 UNL1     0.1347
     28 C         4.519145   9.540309   -1.795533 C.ar        1 UNL1     0.0342
     29 C         3.91332   8.377952   -1.272974 C.ar        1 UNL1     0.1435
     30 C         4.28124   7.090702   -1.666474 C.ar        1 UNL1     0.0774
     31 O         2.828743   8.448389   -0.470641 O.3        1 UNL1     -0.4436
     32 C         2.239862   7.141063   -0.541287 C.3        1 UNL1     0.3143
     33 C         3.369511   6.219549   -0.954709 C.2        1 UNL1     0.2504
     34 C         3.919778   10.882835   -1.481714 C.3        1 UNL1     -0.0327
     35 O         1.865211   6.770063   0.791097 O.2        1 UNL1     -0.4528
     36 C         -1.14931   4.492095   0.428318 C.3        1 UNL1     0.0854
     37 C         -1.287462   3.142974   -0.376859 C.3        1 UNL1     0.0236
     38 C         -1.795122   1.890021   0.485774 C.3        1 UNL1     0.1131
     39 C         -1.079826   1.535507   1.851402 C.3        1 UNL1     0.0200
     40 C         0.584055   1.564073   1.965953 C.3        1 UNL1     0.0661
     41 C         1.666615   0.811596   0.898501 C.3        1 UNL1     0.0091
     42 C         3.353606   1.303359   0.371594 C.3        1 UNL1     0.0661
     43 C         6.911436   7.828406   -4.188558 C.2        1 UNL1     0.2131
     44 O         7.252429   8.706033   -4.960719 O.2        1 UNL1     -0.2851
     45 O         6.268153   10.374039   -3.203255 O.3        1 UNL1     -0.5056
     46 O         3.498695   5.037227   -0.728259 O.2        1 UNL1     -0.2836
     47 C         5.334605   1.977434   2.026611 C.3        1 UNL1     -0.0566
     48 O         3.935563   -0.044316   0.581867 O.3        1 UNL1     -0.3909
     49 C         0.916374   0.402294   -0.349339 C.3        1 UNL1     -0.0577
     50 O         1.042352   2.863004   2.282916 O.3        1 UNL1     -0.3910
     51 O         -1.316669   4.395977   1.824808 O.3        1 UNL1     -0.3753
     52 C         -0.181308   3.003851   -1.473225 C.3        1 UNL1     -0.0564
     53 O         -2.250644   0.73012   -0.350561 O.3        1 UNL1     -0.4608
     54 C         -2.053575   -0.592404   -0.05052 C.2        1 UNL1     0.3042
     55 O         -2.832371   -1.35193   0.524314 O.2        1 UNL1     -0.2512
     56 C         -0.745783   -1.134653   -0.552876 C.3        1 UNL1     0.0332
     57 C         -1.919739   2.220289   3.027751 C.3        1 UNL1     -0.0567
     58 C         1.195705   7.192659   -1.68085 C.3        1 UNL1     0.0210
     59 C         -1.777928   5.589192   2.456744 C.3        1 UNL1     0.0372
     60 C         0.119899   5.234604   0.19821 C.2        1 UNL1     -0.0208
     61 C         0.945078   5.825077   1.063754 C.2        1 UNL1     0.0882
     62 H         4.388471   3.188811   0.536068 H        1 UNL1     0.0365
     63 H         5.975892   4.16316   -0.301169 H        1 UNL1     0.0576
     64 H         8.224366   2.191883   -1.046292 H        1 UNL1     0.0615
     65 H         7.857231   5.263046   -1.483358 H        1 UNL1     0.0622
     66 H         -1.949469   5.133108   0.032219 H        1 UNL1     0.0645
     67 H         -2.150922   3.315343   -1.042655 H        1 UNL1     0.0362
     68 H         -2.795703   2.253012   0.766125 H        1 UNL1     0.0741
     69 H         -1.318066   0.513403   2.11399 H        1 UNL1     0.0359
     70 H         0.720798   0.986832   2.90038 H        1 UNL1     0.0600
     71 H         1.791801   -0.16472   1.406529 H        1 UNL1     0.0348
     72 H         3.155801   1.85052   1.304762 H        1 UNL1     0.0602
     73 H         0.264332   5.364298   -0.845613 H        1 UNL1     0.0628
     74 H         0.900225   5.69484   2.145542 H        1 UNL1     0.1022
     75 H         11.358527   3.551994   -2.740771 H        1 UNL1     0.0279
     76 H         10.482863   3.409777   -4.212602 H        1 UNL1     0.0279
     77 H         11.38418   4.917679   -3.777679 H        1 UNL1     0.0279
     78 H         8.785102   5.269835   -5.0431 H        1 UNL1     0.1553
     79 H         7.643868   3.705893   -4.621324 H        1 UNL1     0.1484
     80 H         3.982841   2.71406   -4.850768 H        1 UNL1     0.0317
     81 H         4.582851   4.269487   -5.408049 H        1 UNL1     0.0317
     82 H         6.651354   3.201872   -6.34357 H        1 UNL1     0.0428
     83 H         5.180979   2.522061   -7.005051 H        1 UNL1     0.0428
     84 H         7.082954   0.301335   -3.914096 H        1 UNL1     0.0428
     85 H         7.866227   1.762829   -4.403628 H        1 UNL1     0.0428
     86 H         6.478088   1.862741   -2.332894 H        1 UNL1     0.0317
     87 H         5.04894   1.42545   -3.150612 H        1 UNL1     0.0317
     88 H         7.489836   1.016242   -7.147515 H        1 UNL1     0.0429
     89 H         7.236216   -0.430351   -6.168087 H        1 UNL1     0.0429
     90 H         5.645634   0.688993   -8.461545 H        1 UNL1     0.0308
     91 H         6.164572   -2.107914   -7.319325 H        1 UNL1     0.0233
     92 H         5.040638   -1.806616   -8.668949 H        1 UNL1     0.0233
     93 H         6.74676   -1.457259   -8.846992 H        1 UNL1     0.0233
     94 H         3.505295   -0.236773   -7.675962 H        1 UNL1     0.0233
     95 H         4.2214   -0.510436   -6.080146 H        1 UNL1     0.0233
     96 H         4.045503   1.146551   -6.702596 H        1 UNL1     0.0233
     97 H         3.286649   11.244545   -2.286415 H        1 UNL1     0.0280
     98 H         3.282541   10.8529   -0.588244 H        1 UNL1     0.0280
     99 H         4.725195   11.617588   -1.318812 H        1 UNL1     0.0280
     100 H         6.042421   10.617144   -4.083918 H        1 UNL1     0.2922
     101 H         4.801854   2.672236   2.67552 H        1 UNL1     0.0236
     102 H         6.408717   1.989569   2.208596 H        1 UNL1     0.0236
     103 H         5.005022   0.97796   2.356184 H        1 UNL1     0.0236
     104 H         3.239368   -0.608733   0.971375 H        1 UNL1     0.2098
     105 H         0.684008   1.2231   -1.023205 H        1 UNL1     0.0234
     106 H         1.36592   -0.423438   -0.900703 H        1 UNL1     0.0234
     107 H         0.0   -0.0   0.0 H        1 UNL1     0.0234
     108 H         2.004173   2.880411   2.114496 H        1 UNL1     0.2098
     109 H         -0.156872   3.868168   -2.151509 H        1 UNL1     0.0234
     110 H         0.818048   2.835977   -1.057473 H        1 UNL1     0.0234
     111 H         -0.353807   2.128422   -2.113392 H        1 UNL1     0.0234
     112 H         -0.902238   -2.113276   -1.016734 H        1 UNL1     0.0342
     113 H         -0.256103   -0.449054   -1.242811 H        1 UNL1     0.0342
     114 H         -0.078174   -1.273191   0.308675 H        1 UNL1     0.0342
     115 H         -2.457802   1.476713   3.631714 H        1 UNL1     0.0234
     116 H         -1.31769   2.823866   3.709865 H        1 UNL1     0.0234
     117 H         -2.754296   2.845348   2.666146 H        1 UNL1     0.0234
     118 H         0.161674   7.219915   -1.29479 H        1 UNL1     0.0309
     119 H         1.345617   8.035445   -2.363083 H        1 UNL1     0.0309
     120 H         1.208911   6.291886   -2.304179 H        1 UNL1     0.0309
     121 H         -0.919668   6.063629   2.931777 H        1 UNL1     0.0524
     122 H         -2.198   6.309343   1.734969 H        1 UNL1     0.0524
     123 H         -2.534338   5.352734   3.199728 H        1 UNL1     0.0524
@<TRIPOS>BOND
     1     1     2    1
     2     1    42    1
     3     2     3    2
     4     3     4    1
     5     4     5    2
     6     5     7    1
     7     6    75    1
     8     6    76    1
     9     6    77    1
    10     7     9   am
    11     9    10    1
    12    10    11    2
    13    10    43    1
    14    11    14    1
    15    11    15    1
    16    12    13   ar
    17    12    27   ar
    18    12    43    1
    19    13    14    1
    20    13    30   ar
    21    14    17    2
    22    15    16    1
    23    16    17    1
    24    16    18    1
    25    16    22    1
    26    18    19    1
    27    19    20    1
    28    20    21    1
    29    21    22    1
    30    23    24    1
    31    23    88    1
    32    23    89    1
    33    24    25    1
    34    24    26    1
    35    24    90    1
    36    25    91    1
    37    25    92    1
    38    25    93    1
    39    26    94    1
    40    26    95    1
    41    26    96    1
    42    27    28   ar
    43    28    29   ar
    44    29    30   ar
    45    29    31    1
    46    30    33    1
    47    31    32    1
    48    32    33    1
    49    32    35    1
    50    34    97    1
    51    34    98    1
    52    34    99    1
    53    35    61    1
    54    36    37    1
    55    36    60    1
    56    37    38    1
    57    38    39    1
    58    39    40    1
    59    40    41    1
    60    41    42    1
    61    45   100    1
    62    47   101    1
    63    47   102    1
    64    47   103    1
    65    48   104    1
    66    49   105    1
    67    49   106    1
    68    49   107    1
    69    50   108    1
    70    51    59    1
    71    52   109    1
    72    52   110    1
    73    52   111    1
    74    53    54    1
    75    54    55    2
    76    54    56    1
    77    56   112    1
    78    56   113    1
    79    56   114    1
    80    57   115    1
    81    57   116    1
    82    57   117    1
    83    58   118    1
    84    58   119    1
    85    58   120    1
    86    59   121    1
    87    59   122    1
    88    59   123    1
    89    60    61    2
    90     1    47    1
    91     1    62    1
    92     2    63    1
    93     3    64    1
    94     4    65    1
    95     5     6    1
    96     7     8    2
    97     9    78    1
    98    15    79    1
    99    18    80    1
   100    18    81    1
   101    19    82    1
   102    19    83    1
   103    20    23    1
   104    21    84    1
   105    21    85    1
   106    22    86    1
   107    22    87    1
   108    27    45    1
   109    28    34    1
   110    32    58    1
   111    33    46    2
   112    36    51    1
   113    36    66    1
   114    37    52    1
   115    37    67    1
   116    38    53    1
   117    38    68    1
   118    42    48    1
   119    42    72    1
   120    43    44    2
   121    60    73    1
   122    61    74    1
   123    39    69    1
   124    39    57    1
   125    40    70    1
   126    40    50    1
   127    41    71    1
   128    41    49    1
