@<TRIPOS>MOLECULE
*****
 123 128 0 0 0
SMALL
GASTEIGER

@<TRIPOS>ATOM
     1 C         5.058912   2.038209   0.51157 C.3        1 UNL1     0.0009
     2 C         6.412131   3.001882   -0.311333 C.2        1 UNL1     -0.0787
     3 C         7.686231   3.043115   -0.997639 C.2        1 UNL1     -0.0649
     4 C         8.44951   4.383691   -1.69522 C.2        1 UNL1     -0.0542
     5 C         9.426848   4.807531   -2.629162 C.2        1 UNL1     0.0115
     6 C         10.586371   4.32237   -3.542096 C.3        1 UNL1     -0.0348
     7 C         9.393393   6.324123   -3.154346 C.2        1 UNL1     0.2441
     8 O         10.155525   7.187887   -2.742531 O.2        1 UNL1     -0.2702
     9 N         8.609237   6.532732   -4.302272 N.am        1 UNL1     -0.2772
     10 C         7.305328   6.797507   -3.951503 C.2        1 UNL1     0.1049
     11 C         6.544702   5.746895   -3.702736 C.2        1 UNL1     0.0801
     12 C         5.907306   8.216249   -2.438215 C.ar        1 UNL1     0.0753
     13 C         5.248236   7.00848   -2.043845 C.ar        1 UNL1     0.0305
     14 C         5.457788   5.753038   -2.761483 C.2        1 UNL1     0.0924
     15 N         6.770062   4.442582   -3.936203 N.pl3        1 UNL1     -0.3170
     16 C         5.5575   3.727147   -3.639387 C.3        1 UNL1     0.1275
     17 N         4.863819   4.573973   -2.600438 N.2        1 UNL1     -0.2557
     18 C         4.681255   3.785298   -4.886991 C.3        1 UNL1     0.0016
     19 C         5.468892   3.225873   -6.060984 C.3        1 UNL1     0.0026
     20 N         5.85448   1.855221   -5.754942 N.3        1 UNL1     -0.3018
     21 C         6.649187   1.69033   -4.536082 C.3        1 UNL1     0.0026
     22 C         5.837123   2.254643   -3.369035 C.3        1 UNL1     0.0016
     23 C         6.343885   1.134994   -6.913562 C.3        1 UNL1     0.0012
     24 C         5.195422   0.846551   -7.893148 C.3        1 UNL1     -0.0339
     25 C         5.121142   1.909744   -9.001372 C.3        1 UNL1     -0.0615
     26 C         5.340501   -0.551522   -8.468582 C.3        1 UNL1     -0.0615
     27 C         5.611542   9.432494   -1.827159 C.ar        1 UNL1     0.1347
     28 C         4.650554   9.571965   -0.841715 C.ar        1 UNL1     0.0342
     29 C         4.04953   8.361622   -0.435507 C.ar        1 UNL1     0.1435
     30 C         4.361751   7.130461   -1.013418 C.ar        1 UNL1     0.0774
     31 O         3.017492   8.344982   0.436059 O.3        1 UNL1     -0.4436
     32 C         2.393988   7.067529   0.235483 C.3        1 UNL1     0.3143
     33 C         3.473956   6.189245   -0.363266 C.2        1 UNL1     0.2504
     34 C         4.103894   10.871996   -0.320964 C.3        1 UNL1     -0.0327
     35 O         2.091761   6.533059   1.530184 O.2        1 UNL1     -0.4528
     36 C         -0.993364   4.370339   1.06895 C.3        1 UNL1     0.0854
     37 C         -1.212537   3.139376   0.107588 C.3        1 UNL1     0.0236
     38 C         -1.697224   1.793547   0.832548 C.3        1 UNL1     0.1131
     39 C         -0.90941   1.253501   2.093488 C.3        1 UNL1     0.0200
     40 C         0.758556   1.240089   2.10553 C.3        1 UNL1     0.0661
     41 C         1.756059   0.61493   0.884148 C.3        1 UNL1     0.0091
     42 C         3.419481   1.143519   0.319328 C.3        1 UNL1     0.0661
     43 C         6.851633   8.146258   -3.580848 C.2        1 UNL1     0.2131
     44 O         7.166407   9.110942   -4.253928 O.2        1 UNL1     -0.2851
     45 O         6.330848   10.55276   -2.238308 O.3        1 UNL1     -0.5056
     46 O         3.587985   4.985613   -0.299067 O.2        1 UNL1     -0.2836
     47 C         5.512677   1.565288   1.918845 C.3        1 UNL1     -0.0566
     48 O         3.980346   -0.229268   0.317718 O.3        1 UNL1     -0.3909
     49 C         0.922037   0.383002   -0.356058 C.3        1 UNL1     -0.0577
     50 O         1.26645   2.479402   2.557053 O.3        1 UNL1     -0.3910
     51 O         -1.078218   4.096737   2.449302 O.3        1 UNL1     -0.3753
     52 C         -0.178414   3.125682   -1.065166 C.3        1 UNL1     -0.0564
     53 O         -2.230405   0.75935   -0.115333 O.3        1 UNL1     -0.4608
     54 C         -2.354162   -0.578397   0.154939 C.2        1 UNL1     0.3042
     55 O         -1.714835   -1.503499   -0.344347 O.2        1 UNL1     -0.2512
     56 C         -3.359271   -0.88456   1.228594 C.3        1 UNL1     0.0332
     57 C         -1.659831   1.793509   3.398646 C.3        1 UNL1     -0.0567
     58 C         1.284364   7.283264   -0.819848 C.3        1 UNL1     0.0210
     59 C         -1.502042   5.196576   3.253411 C.3        1 UNL1     0.0372
     60 C         0.277178   5.115805   0.856429 C.2        1 UNL1     -0.0208
     61 C         1.167232   5.575695   1.736797 C.2        1 UNL1     0.0882
     62 H         4.507671   2.974776   0.658836 H        1 UNL1     0.0365
     63 H         6.064628   4.02365   -0.144892 H        1 UNL1     0.0576
     64 H         8.215606   2.129514   -1.277288 H        1 UNL1     0.0615
     65 H         7.897047   5.236948   -1.292456 H        1 UNL1     0.0622
     66 H         -1.800289   5.070131   0.809703 H        1 UNL1     0.0645
     67 H         -2.110271   3.410521   -0.474747 H        1 UNL1     0.0362
     68 H         -2.669948   2.133256   1.219754 H        1 UNL1     0.0741
     69 H         -1.155967   0.209967   2.237205 H        1 UNL1     0.0359
     70 H         0.937579   0.544464   2.947621 H        1 UNL1     0.0600
     71 H         1.888111   -0.420894   1.253725 H        1 UNL1     0.0348
     72 H         3.291769   1.568231   1.32562 H        1 UNL1     0.0602
     73 H         0.361298   5.377354   -0.169127 H        1 UNL1     0.0628
     74 H         1.184764   5.307078   2.793573 H        1 UNL1     0.1022
     75 H         10.721348   3.21763   -3.450641 H        1 UNL1     0.0279
     76 H         10.448133   4.453626   -4.612951 H        1 UNL1     0.0279
     77 H         11.569406   4.688948   -3.211999 H        1 UNL1     0.0279
     78 H         8.607784   5.690098   -4.873274 H        1 UNL1     0.1553
     79 H         7.456684   4.103326   -4.584577 H        1 UNL1     0.1484
     80 H         3.76558   3.208886   -4.707953 H        1 UNL1     0.0317
     81 H         4.368203   4.813525   -5.097702 H        1 UNL1     0.0317
     82 H         6.349917   3.842897   -6.29118 H        1 UNL1     0.0428
     83 H         4.82622   3.278409   -6.940338 H        1 UNL1     0.0428
     84 H         6.857449   0.64533   -4.286257 H        1 UNL1     0.0428
     85 H         7.644773   2.145098   -4.632576 H        1 UNL1     0.0428
     86 H         6.387255   1.998177   -2.482712 H        1 UNL1     0.0317
     87 H         4.901108   1.693716   -3.25797 H        1 UNL1     0.0317
     88 H         7.085159   1.766651   -7.420333 H        1 UNL1     0.0429
     89 H         6.856356   0.209598   -6.620666 H        1 UNL1     0.0429
     90 H         4.246297   0.847494   -7.344174 H        1 UNL1     0.0308
     91 H         6.06227   1.972746   -9.555818 H        1 UNL1     0.0233
     92 H         4.309164   1.686232   -9.69732 H        1 UNL1     0.0233
     93 H         4.917405   2.912062   -8.605538 H        1 UNL1     0.0233
     94 H         4.642608   -0.691584   -9.301146 H        1 UNL1     0.0233
     95 H         6.354903   -0.694638   -8.851295 H        1 UNL1     0.0233
     96 H         5.136586   -1.31665   -7.714284 H        1 UNL1     0.0233
     97 H         3.329771   10.718838   0.42503 H        1 UNL1     0.0280
     98 H         4.876534   11.479553   0.168074 H        1 UNL1     0.0280
     99 H         3.671659   11.450587   -1.153731 H        1 UNL1     0.0280
     100 H         5.800082   11.279617   -2.513242 H        1 UNL1     0.2922
     101 H         4.695884   1.037101   2.410297 H        1 UNL1     0.0236
     102 H         5.907686   2.371994   2.535429 H        1 UNL1     0.0236
     103 H         6.330328   0.827293   1.864036 H        1 UNL1     0.0236
     104 H         4.423417   -0.367877   1.177629 H        1 UNL1     0.2098
     105 H         0.70977   1.282076   -0.929137 H        1 UNL1     0.0234
     106 H         1.291301   -0.404931   -1.012361 H        1 UNL1     0.0234
     107 H         0.0   -0.0   0.0 H        1 UNL1     0.0234
     108 H         1.004908   3.155762   1.902912 H        1 UNL1     0.2098
     109 H         0.858537   3.074759   -0.704817 H        1 UNL1     0.0234
     110 H         -0.35579   2.32029   -1.786016 H        1 UNL1     0.0234
     111 H         -0.238742   4.041155   -1.66867 H        1 UNL1     0.0234
     112 H         -3.402859   -1.964309   1.400603 H        1 UNL1     0.0342
     113 H         -3.146634   -0.349911   2.153137 H        1 UNL1     0.0342
     114 H         -4.347783   -0.559543   0.875926 H        1 UNL1     0.0342
     115 H         -2.705475   1.458285   3.436619 H        1 UNL1     0.0234
     116 H         -1.186155   1.49852   4.337081 H        1 UNL1     0.0234
     117 H         -1.786896   2.889702   3.411139 H        1 UNL1     0.0234
     118 H         0.354533   7.673215   -0.370006 H        1 UNL1     0.0309
     119 H         1.591242   7.943703   -1.637069 H        1 UNL1     0.0309
     120 H         0.964072   6.34726   -1.290394 H        1 UNL1     0.0309
     121 H         -0.760355   5.987761   3.147188 H        1 UNL1     0.0524
     122 H         -2.472455   5.605063   2.92558 H        1 UNL1     0.0524
     123 H         -1.580395   4.893451   4.293637 H        1 UNL1     0.0524
@<TRIPOS>BOND
     1     1     2    1
     2     1    42    1
     3     2     3    2
     4     3     4    1
     5     4     5    2
     6     5     7    1
     7     6    75    1
     8     6    76    1
     9     6    77    1
    10     7     9   am
    11     9    10    1
    12    10    11    2
    13    10    43    1
    14    11    14    1
    15    11    15    1
    16    12    13   ar
    17    12    27   ar
    18    12    43    1
    19    13    14    1
    20    13    30   ar
    21    14    17    2
    22    15    16    1
    23    16    17    1
    24    16    18    1
    25    16    22    1
    26    18    19    1
    27    19    20    1
    28    20    21    1
    29    21    22    1
    30    23    24    1
    31    23    88    1
    32    23    89    1
    33    24    25    1
    34    24    26    1
    35    24    90    1
    36    25    91    1
    37    25    92    1
    38    25    93    1
    39    26    94    1
    40    26    95    1
    41    26    96    1
    42    27    28   ar
    43    28    29   ar
    44    29    30   ar
    45    29    31    1
    46    30    33    1
    47    31    32    1
    48    32    33    1
    49    32    35    1
    50    34    97    1
    51    34    98    1
    52    34    99    1
    53    35    61    1
    54    36    37    1
    55    36    60    1
    56    37    38    1
    57    38    39    1
    58    39    40    1
    59    40    41    1
    60    41    42    1
    61    45   100    1
    62    47   101    1
    63    47   102    1
    64    47   103    1
    65    48   104    1
    66    49   105    1
    67    49   106    1
    68    49   107    1
    69    50   108    1
    70    51    59    1
    71    52   109    1
    72    52   110    1
    73    52   111    1
    74    53    54    1
    75    54    55    2
    76    54    56    1
    77    56   112    1
    78    56   113    1
    79    56   114    1
    80    57   115    1
    81    57   116    1
    82    57   117    1
    83    58   118    1
    84    58   119    1
    85    58   120    1
    86    59   121    1
    87    59   122    1
    88    59   123    1
    89    60    61    2
    90     1    47    1
    91     1    62    1
    92     2    63    1
    93     3    64    1
    94     4    65    1
    95     5     6    1
    96     7     8    2
    97     9    78    1
    98    15    79    1
    99    18    80    1
   100    18    81    1
   101    19    82    1
   102    19    83    1
   103    20    23    1
   104    21    84    1
   105    21    85    1
   106    22    86    1
   107    22    87    1
   108    27    45    1
   109    28    34    1
   110    32    58    1
   111    33    46    2
   112    36    51    1
   113    36    66    1
   114    37    52    1
   115    37    67    1
   116    38    53    1
   117    38    68    1
   118    42    48    1
   119    42    72    1
   120    43    44    2
   121    60    73    1
   122    61    74    1
   123    39    69    1
   124    39    57    1
   125    40    70    1
   126    40    50    1
   127    41    71    1
   128    41    49    1
