@<TRIPOS>MOLECULE
*****
 123 128 0 0 0
SMALL
GASTEIGER

@<TRIPOS>ATOM
     1 C         1.211749   -3.797993   -1.441498 C.3        1 UNL1     0.0009
     2 C         2.727328   -4.756074   -0.970184 C.2        1 UNL1     -0.0787
     3 C         4.057441   -5.235619   -1.281442 C.2        1 UNL1     -0.0649
     4 C         5.120452   -6.083455   -0.272711 C.2        1 UNL1     -0.0542
     5 C         6.472329   -6.445906   -0.053314 C.2        1 UNL1     0.0115
     6 C         7.891986   -6.444348   -0.684104 C.3        1 UNL1     -0.0348
     7 C         6.91107   -6.965863   1.400694 C.2        1 UNL1     0.2441
     8 O         7.089467   -8.148294   1.658682 O.2        1 UNL1     -0.2702
     9 N         7.329542   -5.956839   2.285511 N.am        1 UNL1     -0.2772
     10 C         6.253399   -5.44436   2.972973 C.2        1 UNL1     0.1049
     11 C         5.552713   -4.515242   2.348472 C.2        1 UNL1     0.0801
     12 C         4.245204   -6.119524   4.302875 C.ar        1 UNL1     0.0753
     13 C         3.48858   -5.248836   3.455509 C.ar        1 UNL1     0.0305
     14 C         4.140736   -4.319068   2.53612 C.2        1 UNL1     0.0924
     15 N         5.833998   -3.828442   1.227886 N.pl3        1 UNL1     -0.3170
     16 C         4.825644   -2.814386   1.069244 C.3        1 UNL1     0.1275
     17 N         3.608169   -3.381156   1.757903 N.2        1 UNL1     -0.2557
     18 C         5.260182   -1.610754   1.899994 C.3        1 UNL1     0.0016
     19 C         6.650911   -1.188416   1.453794 C.3        1 UNL1     0.0026
     20 N         6.607137   -0.858214   0.036022 N.3        1 UNL1     -0.3018
     21 C         6.141063   -1.93577   -0.839202 C.3        1 UNL1     0.0026
     22 C         4.740758   -2.341229   -0.375908 C.3        1 UNL1     0.0016
     23 C         7.795469   -0.163836   -0.418236 C.3        1 UNL1     0.0012
     24 C         7.840019   1.260523   0.157067 C.3        1 UNL1     -0.0339
     25 C         9.236953   1.604456   0.6996 C.3        1 UNL1     -0.0615
     26 C         7.38608   2.260411   -0.892192 C.3        1 UNL1     -0.0615
     27 C         3.621712   -6.915155   5.261179 C.ar        1 UNL1     0.1347
     28 C         2.25759   -6.896486   5.491118 C.ar        1 UNL1     0.0342
     29 C         1.527668   -6.068311   4.612196 C.ar        1 UNL1     0.1435
     30 C         2.134952   -5.292987   3.623613 C.ar        1 UNL1     0.0774
     31 O         0.203619   -5.857981   4.778519 O.3        1 UNL1     -0.4436
     32 C         -0.067253   -4.653941   4.045178 C.3        1 UNL1     0.3143
     33 C         1.044451   -4.555835   3.02014 C.2        1 UNL1     0.2504
     34 C         1.551639   -7.526829   6.659194 C.3        1 UNL1     -0.0327
     35 O         -1.285816   -4.861602   3.320449 O.2        1 UNL1     -0.4528
     36 C         -2.909738   -1.444411   3.014234 C.3        1 UNL1     0.0854
     37 C         -2.332247   -0.11993   2.381955 C.3        1 UNL1     0.0236
     38 C         -3.243823   0.535777   1.237044 C.3        1 UNL1     0.1131
     39 C         -3.759069   -0.356309   0.036638 C.3        1 UNL1     0.0200
     40 C         -2.732901   -1.435069   -0.715488 C.3        1 UNL1     0.0661
     41 C         -1.176803   -1.087528   -1.294611 C.3        1 UNL1     0.0091
     42 C         0.315511   -2.148525   -1.407248 C.3        1 UNL1     0.0661
     43 C         5.724277   -6.080937   4.188355 C.2        1 UNL1     0.2131
     44 O         6.477559   -6.447658   5.071994 O.2        1 UNL1     -0.2851
     45 O         4.426104   -7.768371   6.013785 O.3        1 UNL1     -0.5056
     46 O         1.026698   -4.010987   1.939085 O.2        1 UNL1     -0.2836
     47 C         0.376561   -4.588641   -2.484244 C.3        1 UNL1     -0.0566
     48 O         0.621449   -1.765879   -2.806926 O.3        1 UNL1     -0.3909
     49 C         -0.731064   0.242197   -0.728359 C.3        1 UNL1     -0.0577
     50 O         -2.731559   -2.677958   -0.042475 O.3        1 UNL1     -0.3910
     51 O         -4.052051   -1.980162   2.385329 O.3        1 UNL1     -0.3753
     52 C         -0.77202   -0.153879   2.284542 C.3        1 UNL1     -0.0564
     53 O         -2.865664   1.949526   0.904426 O.3        1 UNL1     -0.4608
     54 C         -2.885029   2.503957   -0.348635 C.2        1 UNL1     0.3042
     55 O         -2.079747   2.318067   -1.260119 O.2        1 UNL1     -0.2512
     56 C         -4.075708   3.38534   -0.597955 C.3        1 UNL1     0.0332
     57 C         -5.230009   -0.862432   0.408594 C.3        1 UNL1     -0.0567
     58 C         0.076782   -3.487705   5.050502 C.3        1 UNL1     0.0210
     59 C         -5.265135   -1.83639   3.122637 C.3        1 UNL1     0.0372
     60 C         -1.930424   -2.557423   3.145794 C.2        1 UNL1     -0.0208
     61 C         -2.052329   -3.854419   2.859987 C.2        1 UNL1     0.0882
     62 H         0.783847   -4.02819   -0.458329 H        1 UNL1     0.0365
     63 H         2.41367   -5.174633   -0.011593 H        1 UNL1     0.0576
     64 H         4.576156   -4.932845   -2.193786 H        1 UNL1     0.0615
     65 H         4.489069   -6.404468   0.560229 H        1 UNL1     0.0622
     66 H         -3.185665   -1.162986   4.040251 H        1 UNL1     0.0645
     67 H         -2.425222   0.625832   3.190506 H        1 UNL1     0.0362
     68 H         -4.140404   0.773732   1.829531 H        1 UNL1     0.0741
     69 H         -4.057965   0.292488   -0.775847 H        1 UNL1     0.0359
     70 H         -3.303254   -1.624432   -1.644951 H        1 UNL1     0.0600
     71 H         -1.41715   -0.808905   -2.339388 H        1 UNL1     0.0348
     72 H         -0.538286   -2.835114   -1.312683 H        1 UNL1     0.0602
     73 H         -1.066777   -2.204635   3.65265 H        1 UNL1     0.0628
     74 H         -2.877509   -4.285884   2.292401 H        1 UNL1     0.1022
     75 H         7.855187   -6.824945   -1.733307 H        1 UNL1     0.0279
     76 H         8.368748   -5.47403   -0.803477 H        1 UNL1     0.0279
     77 H         8.567593   -7.173074   -0.21271 H        1 UNL1     0.0279
     78 H         7.748951   -5.192984   1.759489 H        1 UNL1     0.1553
     79 H         6.757398   -3.74162   0.844837 H        1 UNL1     0.1484
     80 H         4.532886   -0.80122   1.764123 H        1 UNL1     0.0317
     81 H         5.263461   -1.853168   2.968112 H        1 UNL1     0.0317
     82 H         7.398038   -1.970163   1.655253 H        1 UNL1     0.0428
     83 H         6.941988   -0.330098   2.060105 H        1 UNL1     0.0428
     84 H         6.041533   -1.637373   -1.88747 H        1 UNL1     0.0428
     85 H         6.849487   -2.775227   -0.86687 H        1 UNL1     0.0428
     86 H         4.380254   -3.032741   -1.114715 H        1 UNL1     0.0317
     87 H         4.054548   -1.490536   -0.468286 H        1 UNL1     0.0317
     88 H         8.672833   -0.714975   -0.055233 H        1 UNL1     0.0429
     89 H         7.854971   -0.150292   -1.51416 H        1 UNL1     0.0429
     90 H         7.117503   1.339063   0.978051 H        1 UNL1     0.0308
     91 H         10.019396   1.074943   0.147784 H        1 UNL1     0.0233
     92 H         9.420741   2.679731   0.63948 H        1 UNL1     0.0233
     93 H         9.353258   1.33294   1.755814 H        1 UNL1     0.0233
     94 H         7.546311   3.283   -0.533762 H        1 UNL1     0.0233
     95 H         7.967446   2.129623   -1.809181 H        1 UNL1     0.0233
     96 H         6.324863   2.138718   -1.126665 H        1 UNL1     0.0233
     97 H         0.708571   -6.930822   6.995709 H        1 UNL1     0.0280
     98 H         1.141456   -8.514444   6.410952 H        1 UNL1     0.0280
     99 H         2.255387   -7.636022   7.500569 H        1 UNL1     0.0280
     100 H         5.022475   -8.291798   5.507833 H        1 UNL1     0.2922
     101 H         -0.498542   -5.022999   -2.001353 H        1 UNL1     0.0236
     102 H         0.959159   -5.335189   -3.022974 H        1 UNL1     0.0236
     103 H         -0.034069   -3.932271   -3.269581 H        1 UNL1     0.0236
     104 H         0.003061   -1.052631   -3.059602 H        1 UNL1     0.2098
     105 H         -0.270054   0.907513   -1.454056 H        1 UNL1     0.0234
     106 H         -1.494008   0.773764   -0.159782 H        1 UNL1     0.0234
     107 H         0.0   0.0   0.0 H        1 UNL1     0.0234
     108 H         -2.144836   -3.277808   -0.542178 H        1 UNL1     0.2098
     109 H         -0.295844   -0.255768   3.269725 H        1 UNL1     0.0234
     110 H         -0.399527   -0.936492   1.614833 H        1 UNL1     0.0234
     111 H         -0.372942   0.7752   1.856179 H        1 UNL1     0.0234
     112 H         -4.034678   3.787436   -1.614803 H        1 UNL1     0.0342
     113 H         -5.015314   2.86391   -0.421618 H        1 UNL1     0.0342
     114 H         -4.028434   4.231706   0.10104 H        1 UNL1     0.0342
     115 H         -5.871321   -0.942222   -0.479967 H        1 UNL1     0.0234
     116 H         -5.251791   -1.828363   0.917074 H        1 UNL1     0.0234
     117 H         -5.801383   -0.142827   1.019856 H        1 UNL1     0.0234
     118 H         -0.895065   -3.017947   5.282554 H        1 UNL1     0.0309
     119 H         0.563706   -3.783779   5.985086 H        1 UNL1     0.0309
     120 H         0.669091   -2.657898   4.64963 H        1 UNL1     0.0309
     121 H         -5.159285   -2.405545   4.045792 H        1 UNL1     0.0524
     122 H         -5.464326   -0.787874   3.400078 H        1 UNL1     0.0524
     123 H         -6.103629   -2.213367   2.543923 H        1 UNL1     0.0524
@<TRIPOS>BOND
     1     1     2    1
     2     1    42    1
     3     2     3    2
     4     3     4    1
     5     4     5    2
     6     5     7    1
     7     6    75    1
     8     6    76    1
     9     6    77    1
    10     7     9   am
    11     9    10    1
    12    10    11    2
    13    10    43    1
    14    11    14    1
    15    11    15    1
    16    12    13   ar
    17    12    27   ar
    18    12    43    1
    19    13    14    1
    20    13    30   ar
    21    14    17    2
    22    15    16    1
    23    16    17    1
    24    16    18    1
    25    16    22    1
    26    18    19    1
    27    19    20    1
    28    20    21    1
    29    21    22    1
    30    23    24    1
    31    23    88    1
    32    23    89    1
    33    24    25    1
    34    24    26    1
    35    24    90    1
    36    25    91    1
    37    25    92    1
    38    25    93    1
    39    26    94    1
    40    26    95    1
    41    26    96    1
    42    27    28   ar
    43    28    29   ar
    44    29    30   ar
    45    29    31    1
    46    30    33    1
    47    31    32    1
    48    32    33    1
    49    32    35    1
    50    34    97    1
    51    34    98    1
    52    34    99    1
    53    35    61    1
    54    36    37    1
    55    36    60    1
    56    37    38    1
    57    38    39    1
    58    39    40    1
    59    40    41    1
    60    41    42    1
    61    45   100    1
    62    47   101    1
    63    47   102    1
    64    47   103    1
    65    48   104    1
    66    49   105    1
    67    49   106    1
    68    49   107    1
    69    50   108    1
    70    51    59    1
    71    52   109    1
    72    52   110    1
    73    52   111    1
    74    53    54    1
    75    54    55    2
    76    54    56    1
    77    56   112    1
    78    56   113    1
    79    56   114    1
    80    57   115    1
    81    57   116    1
    82    57   117    1
    83    58   118    1
    84    58   119    1
    85    58   120    1
    86    59   121    1
    87    59   122    1
    88    59   123    1
    89    60    61    2
    90     1    47    1
    91     1    62    1
    92     2    63    1
    93     3    64    1
    94     4    65    1
    95     5     6    1
    96     7     8    2
    97     9    78    1
    98    15    79    1
    99    18    80    1
   100    18    81    1
   101    19    82    1
   102    19    83    1
   103    20    23    1
   104    21    84    1
   105    21    85    1
   106    22    86    1
   107    22    87    1
   108    27    45    1
   109    28    34    1
   110    32    58    1
   111    33    46    2
   112    36    51    1
   113    36    66    1
   114    37    52    1
   115    37    67    1
   116    38    53    1
   117    38    68    1
   118    42    48    1
   119    42    72    1
   120    43    44    2
   121    60    73    1
   122    61    74    1
   123    39    69    1
   124    39    57    1
   125    40    70    1
   126    40    50    1
   127    41    71    1
   128    41    49    1
