@<TRIPOS>MOLECULE
*****
 123 128 0 0 0
SMALL
GASTEIGER

@<TRIPOS>ATOM
     1 C         4.290951   0.776437   -2.651961 C.3        1 UNL1     0.0009
     2 C         4.841647   0.696336   -4.420394 C.2        1 UNL1     -0.0787
     3 C         5.662735   0.102802   -5.454599 C.2        1 UNL1     -0.0649
     4 C         5.635189   0.422895   -7.116868 C.2        1 UNL1     -0.0542
     5 C         5.983667   -0.067335   -8.399566 C.2        1 UNL1     0.0115
     6 C         6.779278   -1.170907   -9.149536 C.3        1 UNL1     -0.0348
     7 C         5.279396   0.57137   -9.693029 C.2        1 UNL1     0.2441
     8 O         5.834112   1.384537   -10.419372 O.2        1 UNL1     -0.2702
     9 N         4.084819   -0.057939   -10.084318 N.am        1 UNL1     -0.2772
     10 C         3.011476   0.498167   -9.42705 C.2        1 UNL1     0.1049
     11 C         2.775343   0.043739   -8.209693 C.2        1 UNL1     0.0801
     12 C         1.956452   2.692716   -8.854151 C.ar        1 UNL1     0.0753
     13 C         1.914069   2.229934   -7.500399 C.ar        1 UNL1     0.0305
     14 C         2.201871   0.838914   -7.157931 C.2        1 UNL1     0.0924
     15 N         3.282147   -1.026413   -7.573726 N.pl3        1 UNL1     -0.3170
     16 C         2.569838   -1.178186   -6.332825 C.3        1 UNL1     0.1275
     17 N         2.115335   0.21825   -5.984809 N.2        1 UNL1     -0.2557
     18 C         1.302877   -1.973401   -6.633067 C.3        1 UNL1     0.0016
     19 C         1.696827   -3.28413   -7.295173 C.3        1 UNL1     0.0026
     20 N         2.574848   -4.017918   -6.394251 N.3        1 UNL1     -0.3018
     21 C         3.792909   -3.30811   -5.998184 C.3        1 UNL1     0.0026
     22 C         3.373564   -1.996931   -5.331212 C.3        1 UNL1     0.0016
     23 C         2.766277   -5.398051   -6.793289 C.3        1 UNL1     0.0012
     24 C         3.508327   -5.472245   -8.13702 C.3        1 UNL1     -0.0339
     25 C         4.423782   -4.254041   -8.341904 C.3        1 UNL1     -0.0615
     26 C         4.282229   -6.775544   -8.233291 C.3        1 UNL1     -0.0615
     27 C         1.564238   3.987121   -9.187024 C.ar        1 UNL1     0.1347
     28 C         1.075954   4.892833   -8.262192 C.ar        1 UNL1     0.0342
     29 C         1.089289   4.431638   -6.928668 C.ar        1 UNL1     0.1435
     30 C         1.513388   3.14999   -6.575485 C.ar        1 UNL1     0.0774
     31 O         0.543012   5.155276   -5.927201 O.3        1 UNL1     -0.4436
     32 C         0.319266   4.205794   -4.87397 C.3        1 UNL1     0.3143
     33 C         1.290968   3.075447   -5.146591 C.2        1 UNL1     0.2504
     34 C         0.405066   6.200573   -8.57814 C.3        1 UNL1     -0.0327
     35 O         0.731401   4.823837   -3.648646 O.2        1 UNL1     -0.4528
     36 C         -1.452887   3.314689   -0.935816 C.3        1 UNL1     0.0854
     37 C         -1.639698   1.800956   -0.534272 C.3        1 UNL1     0.0236
     38 C         -1.358495   1.471666   1.009826 C.3        1 UNL1     0.1131
     39 C         -0.013861   1.960439   1.684608 C.3        1 UNL1     0.0200
     40 C         1.43957   1.806084   0.880774 C.3        1 UNL1     0.0661
     41 C         2.016986   0.39694   0.133437 C.3        1 UNL1     0.0091
     42 C         3.072264   0.184632   -1.352065 C.3        1 UNL1     0.0661
     43 C         2.347071   1.71999   -9.904617 C.2        1 UNL1     0.2131
     44 O         2.056959   1.84647   -11.080447 O.2        1 UNL1     -0.2851
     45 O         1.679256   4.373121   -10.520895 O.3        1 UNL1     -0.5056
     46 O         1.787152   2.301754   -4.35852 O.2        1 UNL1     -0.2836
     47 C         5.383008   1.448635   -1.777007 C.3        1 UNL1     -0.0566
     48 O         3.98189   -0.792513   -0.706398 O.3        1 UNL1     -0.3909
     49 C         0.879202   -0.592024   0.011403 C.3        1 UNL1     -0.0577
     50 O         1.673566   2.924692   0.049097 O.3        1 UNL1     -0.3910
     51 O         -0.899517   4.151092   0.054964 O.3        1 UNL1     -0.3753
     52 C         -1.200552   0.835728   -1.683374 C.3        1 UNL1     -0.0564
     53 O         -1.872806   0.129303   1.440953 O.3        1 UNL1     -0.4608
     54 C         -2.866148   -0.08368   2.360649 C.2        1 UNL1     0.3042
     55 O         -2.852042   -0.870384   3.306554 O.2        1 UNL1     -0.2512
     56 C         -4.058743   0.810897   2.175818 C.3        1 UNL1     0.0332
     57 C         -0.318049   3.35089   2.414192 C.3        1 UNL1     -0.0567
     58 C         -1.123014   3.679299   -5.058798 C.3        1 UNL1     0.0210
     59 C         -0.559114   5.46332   -0.390062 C.3        1 UNL1     0.0372
     60 C         -0.666537   3.543165   -2.17864 C.2        1 UNL1     -0.0208
     61 C         0.307924   4.416401   -2.436767 C.2        1 UNL1     0.0882
     62 H         3.581775   1.565905   -2.928583 H        1 UNL1     0.0365
     63 H         4.290105   1.538398   -4.843717 H        1 UNL1     0.0576
     64 H         6.293868   -0.766312   -5.256057 H        1 UNL1     0.0615
     65 H         5.051084   1.34385   -7.195274 H        1 UNL1     0.0622
     66 H         -2.469972   3.670146   -1.153148 H        1 UNL1     0.0645
     67 H         -2.729795   1.639206   -0.598185 H        1 UNL1     0.0362
     68 H         -2.153872   2.07434   1.47424 H        1 UNL1     0.0741
     69 H         0.151764   1.386188   2.586391 H        1 UNL1     0.0359
     70 H         2.140528   1.939089   1.726958 H        1 UNL1     0.0600
     71 H         2.596848   -0.041403   0.969243 H        1 UNL1     0.0348
     72 H         3.225626   1.220643   -1.016689 H        1 UNL1     0.0602
     73 H         -1.077437   2.959025   -2.964254 H        1 UNL1     0.0628
     74 H         0.821311   5.009295   -1.679041 H        1 UNL1     0.1022
     75 H         6.641218   -2.160785   -8.651425 H        1 UNL1     0.0279
     76 H         6.473832   -1.378814   -10.172544 H        1 UNL1     0.0279
     77 H         7.868242   -1.038331   -9.07028 H        1 UNL1     0.0279
     78 H         4.119826   -1.043981   -9.83417 H        1 UNL1     0.1553
     79 H         3.727008   -1.793954   -8.042674 H        1 UNL1     0.1484
     80 H         0.758431   -2.14544   -5.696719 H        1 UNL1     0.0317
     81 H         0.631015   -1.406886   -7.28676 H        1 UNL1     0.0317
     82 H         2.178608   -3.119085   -8.270139 H        1 UNL1     0.0428
     83 H         0.778551   -3.834533   -7.502236 H        1 UNL1     0.0428
     84 H         4.394568   -3.847535   -5.260052 H        1 UNL1     0.0428
     85 H         4.476605   -3.164784   -6.84632 H        1 UNL1     0.0428
     86 H         4.277496   -1.570142   -4.937833 H        1 UNL1     0.0317
     87 H         2.780012   -2.206535   -4.432959 H        1 UNL1     0.0317
     88 H         3.378534   -5.893019   -6.028147 H        1 UNL1     0.0429
     89 H         1.810759   -5.936315   -6.838358 H        1 UNL1     0.0429
     90 H         2.774722   -5.498653   -8.951476 H        1 UNL1     0.0308
     91 H         3.843869   -3.329691   -8.421771 H        1 UNL1     0.0233
     92 H         5.134172   -4.161596   -7.517034 H        1 UNL1     0.0233
     93 H         5.024939   -4.332408   -9.255854 H        1 UNL1     0.0233
     94 H         4.971996   -6.868592   -7.387478 H        1 UNL1     0.0233
     95 H         3.59207   -7.623219   -8.200293 H        1 UNL1     0.0233
     96 H         4.861775   -6.828044   -9.159217 H        1 UNL1     0.0233
     97 H         -0.144052   6.16113   -9.514165 H        1 UNL1     0.0280
     98 H         -0.327482   6.48566   -7.811749 H        1 UNL1     0.0280
     99 H         1.164622   6.995593   -8.656335 H        1 UNL1     0.0280
     100 H         2.333735   3.905012   -11.008906 H        1 UNL1     0.2922
     101 H         6.207307   1.780081   -2.40814 H        1 UNL1     0.0236
     102 H         5.723914   0.817435   -0.957035 H        1 UNL1     0.0236
     103 H         5.016075   2.367715   -1.29034 H        1 UNL1     0.0236
     104 H         3.883807   -0.692403   0.260725 H        1 UNL1     0.2098
     105 H         0.894002   -1.183331   -0.900709 H        1 UNL1     0.0234
     106 H         0.742606   -1.23826   0.87838 H        1 UNL1     0.0234
     107 H         -0.0   0.0   0.0 H        1 UNL1     0.0234
     108 H         0.990609   2.915127   -0.648934 H        1 UNL1     0.2098
     109 H         -0.243968   0.339792   -1.467258 H        1 UNL1     0.0234
     110 H         -1.957619   0.082009   -1.925244 H        1 UNL1     0.0234
     111 H         -1.0494   1.374055   -2.628521 H        1 UNL1     0.0234
     112 H         -4.098475   1.169438   1.142757 H        1 UNL1     0.0342
     113 H         -4.988413   0.316702   2.453898 H        1 UNL1     0.0342
     114 H         -3.937212   1.684442   2.83104 H        1 UNL1     0.0342
     115 H         0.534694   3.690301   3.018193 H        1 UNL1     0.0234
     116 H         -0.580844   4.161939   1.732145 H        1 UNL1     0.0234
     117 H         -1.108367   3.281491   3.181344 H        1 UNL1     0.0234
     118 H         -1.168944   2.837695   -5.77196 H        1 UNL1     0.0309
     119 H         -1.594104   3.377576   -4.117926 H        1 UNL1     0.0309
     120 H         -1.788908   4.42563   -5.505654 H        1 UNL1     0.0309
     121 H         -1.488074   6.015665   -0.529007 H        1 UNL1     0.0524
     122 H         0.045992   6.012401   0.350474 H        1 UNL1     0.0524
     123 H         -0.009896   5.412138   -1.325922 H        1 UNL1     0.0524
@<TRIPOS>BOND
     1     1     2    1
     2     1    42    1
     3     2     3    2
     4     3     4    1
     5     4     5    2
     6     5     7    1
     7     6    75    1
     8     6    76    1
     9     6    77    1
    10     7     9   am
    11     9    10    1
    12    10    11    2
    13    10    43    1
    14    11    14    1
    15    11    15    1
    16    12    13   ar
    17    12    27   ar
    18    12    43    1
    19    13    14    1
    20    13    30   ar
    21    14    17    2
    22    15    16    1
    23    16    17    1
    24    16    18    1
    25    16    22    1
    26    18    19    1
    27    19    20    1
    28    20    21    1
    29    21    22    1
    30    23    24    1
    31    23    88    1
    32    23    89    1
    33    24    25    1
    34    24    26    1
    35    24    90    1
    36    25    91    1
    37    25    92    1
    38    25    93    1
    39    26    94    1
    40    26    95    1
    41    26    96    1
    42    27    28   ar
    43    28    29   ar
    44    29    30   ar
    45    29    31    1
    46    30    33    1
    47    31    32    1
    48    32    33    1
    49    32    35    1
    50    34    97    1
    51    34    98    1
    52    34    99    1
    53    35    61    1
    54    36    37    1
    55    36    60    1
    56    37    38    1
    57    38    39    1
    58    39    40    1
    59    40    41    1
    60    41    42    1
    61    45   100    1
    62    47   101    1
    63    47   102    1
    64    47   103    1
    65    48   104    1
    66    49   105    1
    67    49   106    1
    68    49   107    1
    69    50   108    1
    70    51    59    1
    71    52   109    1
    72    52   110    1
    73    52   111    1
    74    53    54    1
    75    54    55    2
    76    54    56    1
    77    56   112    1
    78    56   113    1
    79    56   114    1
    80    57   115    1
    81    57   116    1
    82    57   117    1
    83    58   118    1
    84    58   119    1
    85    58   120    1
    86    59   121    1
    87    59   122    1
    88    59   123    1
    89    60    61    2
    90     1    47    1
    91     1    62    1
    92     2    63    1
    93     3    64    1
    94     4    65    1
    95     5     6    1
    96     7     8    2
    97     9    78    1
    98    15    79    1
    99    18    80    1
   100    18    81    1
   101    19    82    1
   102    19    83    1
   103    20    23    1
   104    21    84    1
   105    21    85    1
   106    22    86    1
   107    22    87    1
   108    27    45    1
   109    28    34    1
   110    32    58    1
   111    33    46    2
   112    36    51    1
   113    36    66    1
   114    37    52    1
   115    37    67    1
   116    38    53    1
   117    38    68    1
   118    42    48    1
   119    42    72    1
   120    43    44    2
   121    60    73    1
   122    61    74    1
   123    39    69    1
   124    39    57    1
   125    40    70    1
   126    40    50    1
   127    41    71    1
   128    41    49    1
