@<TRIPOS>MOLECULE
*****
 123 128 0 0 0
SMALL
GASTEIGER

@<TRIPOS>ATOM
     1 C         -3.193754   0.779282   2.492785 C.3        1 UNL1     0.0009
     2 C         -3.705072   -0.159785   4.007297 C.2        1 UNL1     -0.0787
     3 C         -4.524813   -1.170854   4.641181 C.2        1 UNL1     -0.0649
     4 C         -4.444775   -1.723802   6.239367 C.2        1 UNL1     -0.0542
     5 C         -4.782325   -2.78046   7.120623 C.2        1 UNL1     0.0115
     6 C         -5.604119   -4.092094   7.253273 C.3        1 UNL1     -0.0348
     7 C         -4.022118   -2.889189   8.530322 C.2        1 UNL1     0.2441
     8 O         -4.525882   -2.534297   9.58711 O.2        1 UNL1     -0.2702
     9 N         -2.845166   -3.657561   8.507062 N.am        1 UNL1     -0.2772
     10 C         -1.766014   -2.872931   8.170745 C.2        1 UNL1     0.1049
     11 C         -1.577557   -2.664562   6.880284 C.2        1 UNL1     0.0801
     12 C         -0.636512   -0.710682   8.724134 C.ar        1 UNL1     0.0753
     13 C         -0.645171   -0.436946   7.319284 C.ar        1 UNL1     0.0305
     14 C         -0.997371   -1.464264   6.341725 C.2        1 UNL1     0.0924
     15 N         -2.14244   -3.262329   5.817218 N.pl3        1 UNL1     -0.3170
     16 C         -1.466584   -2.791178   4.637603 C.3        1 UNL1     0.1275
     17 N         -0.964056   -1.418471   5.012921 N.2        1 UNL1     -0.2557
     18 C         -0.22624   -3.65952   4.449902 C.3        1 UNL1     0.0016
     19 C         -0.657333   -5.116151   4.386863 C.3        1 UNL1     0.0026
     20 N         -1.585636   -5.281627   3.276954 N.3        1 UNL1     -0.3018
     21 C         -2.782885   -4.44059   3.337121 C.3        1 UNL1     0.0026
     22 C         -2.326523   -2.981733   3.395129 C.3        1 UNL1     0.0016
     23 C         -1.823507   -6.671831   2.943196 C.3        1 UNL1     0.0012
     24 C         -2.468242   -6.789326   1.553136 C.3        1 UNL1     -0.0339
     25 C         -3.330054   -5.558459   1.227094 C.3        1 UNL1     -0.0615
     26 C         -1.397707   -7.01699   0.500091 C.3        1 UNL1     -0.0615
     27 C         -0.184174   0.235288   9.641002 C.ar        1 UNL1     0.1347
     28 C         0.318431   1.469986   9.270919 C.ar        1 UNL1     0.0342
     29 C         0.254662   1.736307   7.886661 C.ar        1 UNL1     0.1435
     30 C         -0.229491   0.812268   6.959855 C.ar        1 UNL1     0.0774
     31 O         0.805968   2.850172   7.357158 O.3        1 UNL1     -0.4436
     32 C         0.965816   2.548082   5.962861 C.3        1 UNL1     0.3143
     33 C         -0.044306   1.455604   5.67588 C.2        1 UNL1     0.2504
     34 C         1.049275   2.429434   10.168374 C.3        1 UNL1     -0.0327
     35 O         0.550159   3.704623   5.226048 O.2        1 UNL1     -0.4528
     36 C         2.606169   3.700096   2.035297 C.3        1 UNL1     0.0854
     37 C         2.721659   2.584854   0.926054 C.3        1 UNL1     0.0236
     38 C         2.39068   3.076796   -0.563976 C.3        1 UNL1     0.1131
     39 C         1.051385   3.868422   -0.850135 C.3        1 UNL1     0.0200
     40 C         -0.387609   3.367557   -0.171262 C.3        1 UNL1     0.0661
     41 C         -1.003942   1.78743   -0.201975 C.3        1 UNL1     0.0091
     42 C         -2.031382   0.886849   1.022247 C.3        1 UNL1     0.0661
     43 C         -1.041301   -2.068416   9.165682 C.2        1 UNL1     0.2131
     44 O         -0.718423   -2.552459   10.23535 O.2        1 UNL1     -0.2851
     45 O         -0.251665   -0.093339   10.993366 O.3        1 UNL1     -0.5056
     46 O         -0.590137   1.190306   4.628245 O.2        1 UNL1     -0.2836
     47 C         -4.278048   1.823788   2.114242 C.3        1 UNL1     -0.0566
     48 O         -2.995087   0.383916   0.013561 O.3        1 UNL1     -0.3909
     49 C         0.095252   0.843214   -0.635245 C.3        1 UNL1     -0.0577
     50 O         -0.556081   3.926961   1.115753 O.3        1 UNL1     -0.3910
     51 O         2.06389   4.932042   1.616164 O.3        1 UNL1     -0.3753
     52 C         2.271046   1.185526   1.458762 C.3        1 UNL1     -0.0564
     53 O         2.839574   2.117103   -1.626901 O.3        1 UNL1     -0.4608
     54 C         3.142861   2.449253   -2.92136 C.2        1 UNL1     0.3042
     55 O         2.42786   3.043902   -3.726968 O.2        1 UNL1     -0.2512
     56 C         4.537679   2.06838   -3.328953 C.3        1 UNL1     0.0332
     57 C         1.394454   5.429888   -0.802181 C.3        1 UNL1     -0.0567
     58 C         2.389471   1.966014   5.801826 C.3        1 UNL1     0.0210
     59 C         2.250892   6.011339   2.530502 C.3        1 UNL1     0.0372
     60 C         1.85952   3.296162   3.2578 C.2        1 UNL1     -0.0208
     61 C         0.927794   3.946581   3.956074 C.2        1 UNL1     0.0882
     62 H         -2.446679   1.308509   3.096532 H        1 UNL1     0.0365
     63 H         -3.109831   0.345476   4.770756 H        1 UNL1     0.0576
     64 H         -5.195315   -1.809867   4.062219 H        1 UNL1     0.0615
     65 H         -3.821996   -0.978827   6.742 H        1 UNL1     0.0622
     66 H         3.641748   3.875745   2.358977 H        1 UNL1     0.0645
     67 H         3.805485   2.387333   0.856304 H        1 UNL1     0.0362
     68 H         3.198652   3.812022   -0.698684 H        1 UNL1     0.0741
     69 H         0.841156   3.824904   -1.910474 H        1 UNL1     0.0359
     70 H         -1.102488   3.921478   -0.809368 H        1 UNL1     0.0600
     71 H         -1.620852   1.838409   -1.12055 H        1 UNL1     0.0348
     72 H         -2.150404   1.955255   1.25389 H        1 UNL1     0.0602
     73 H         2.264873   2.388463   3.630652 H        1 UNL1     0.0628
     74 H         0.421086   4.850344   3.615928 H        1 UNL1     0.1022
     75 H         -6.387505   -3.985806   8.04197 H        1 UNL1     0.0279
     76 H         -6.185884   -4.390104   6.383901 H        1 UNL1     0.0279
     77 H         -5.009536   -4.928227   7.649573 H        1 UNL1     0.0279
     78 H         -2.926187   -4.386057   7.8008 H        1 UNL1     0.1553
     79 H         -2.606883   -4.150835   5.859424 H        1 UNL1     0.1484
     80 H         0.288352   -3.353988   3.530874 H        1 UNL1     0.0317
     81 H         0.483453   -3.510736   5.270786 H        1 UNL1     0.0317
     82 H         -1.108697   -5.44848   5.333299 H        1 UNL1     0.0428
     83 H         0.242456   -5.717764   4.254608 H        1 UNL1     0.0428
     84 H         -3.423359   -4.525409   2.453712 H        1 UNL1     0.0428
     85 H         -3.439838   -4.723712   4.171131 H        1 UNL1     0.0428
     86 H         -3.22144   -2.394554   3.30385 H        1 UNL1     0.0317
     87 H         -1.763502   -2.728904   2.488387 H        1 UNL1     0.0317
     88 H         -0.85528   -7.189007   2.924213 H        1 UNL1     0.0429
     89 H         -2.437165   -7.166022   3.707378 H        1 UNL1     0.0429
     90 H         -3.107484   -7.679798   1.527793 H        1 UNL1     0.0308
     91 H         -2.848658   -4.635403   1.563735 H        1 UNL1     0.0233
     92 H         -3.519525   -5.493063   0.153114 H        1 UNL1     0.0233
     93 H         -4.314262   -5.598138   1.709377 H        1 UNL1     0.0233
     94 H         -1.755311   -7.725278   -0.25508 H        1 UNL1     0.0233
     95 H         -1.163938   -6.075454   -0.004709 H        1 UNL1     0.0233
     96 H         -0.481267   -7.417207   0.942734 H        1 UNL1     0.0233
     97 H         1.224955   2.011178   11.154999 H        1 UNL1     0.0280
     98 H         2.038949   2.693519   9.773329 H        1 UNL1     0.0280
     99 H         0.455898   3.351134   10.284426 H        1 UNL1     0.0280
     100 H         0.499845   -0.554574   11.322179 H        1 UNL1     0.2922
     101 H         -5.256726   1.345041   2.088763 H        1 UNL1     0.0236
     102 H         -4.057828   2.353881   1.188236 H        1 UNL1     0.0236
     103 H         -4.373717   2.615897   2.875558 H        1 UNL1     0.0236
     104 H         -2.593923   0.513652   -0.868032 H        1 UNL1     0.2098
     105 H         0.011095   0.497178   -1.662372 H        1 UNL1     0.0234
     106 H         1.106067   1.200257   -0.43852 H        1 UNL1     0.0234
     107 H         0.0   0.0   0.0 H        1 UNL1     0.0234
     108 H         -0.904263   3.222086   1.695139 H        1 UNL1     0.2098
     109 H         3.08987   0.45265   1.447256 H        1 UNL1     0.0234
     110 H         1.831178   1.22778   2.460997 H        1 UNL1     0.0234
     111 H         1.475963   0.752667   0.837133 H        1 UNL1     0.0234
     112 H         4.602594   2.005234   -4.419432 H        1 UNL1     0.0342
     113 H         5.282579   2.756656   -2.932414 H        1 UNL1     0.0342
     114 H         4.754443   1.071753   -2.920403 H        1 UNL1     0.0342
     115 H         1.387083   5.880611   -1.80417 H        1 UNL1     0.0234
     116 H         0.718451   6.013869   -0.174459 H        1 UNL1     0.0234
     117 H         2.428155   5.64349   -0.480035 H        1 UNL1     0.0234
     118 H         2.596352   1.658207   4.761893 H        1 UNL1     0.0309
     119 H         3.174438   2.652278   6.135101 H        1 UNL1     0.0309
     120 H         2.532653   1.04165   6.372051 H        1 UNL1     0.0309
     121 H         2.814337   5.628914   3.381171 H        1 UNL1     0.0524
     122 H         2.834491   6.836686   2.089762 H        1 UNL1     0.0524
     123 H         1.289715   6.39576   2.859824 H        1 UNL1     0.0524
@<TRIPOS>BOND
     1     1     2    1
     2     1    42    1
     3     2     3    2
     4     3     4    1
     5     4     5    2
     6     5     7    1
     7     6    75    1
     8     6    76    1
     9     6    77    1
    10     7     9   am
    11     9    10    1
    12    10    11    2
    13    10    43    1
    14    11    14    1
    15    11    15    1
    16    12    13   ar
    17    12    27   ar
    18    12    43    1
    19    13    14    1
    20    13    30   ar
    21    14    17    2
    22    15    16    1
    23    16    17    1
    24    16    18    1
    25    16    22    1
    26    18    19    1
    27    19    20    1
    28    20    21    1
    29    21    22    1
    30    23    24    1
    31    23    88    1
    32    23    89    1
    33    24    25    1
    34    24    26    1
    35    24    90    1
    36    25    91    1
    37    25    92    1
    38    25    93    1
    39    26    94    1
    40    26    95    1
    41    26    96    1
    42    27    28   ar
    43    28    29   ar
    44    29    30   ar
    45    29    31    1
    46    30    33    1
    47    31    32    1
    48    32    33    1
    49    32    35    1
    50    34    97    1
    51    34    98    1
    52    34    99    1
    53    35    61    1
    54    36    37    1
    55    36    60    1
    56    37    38    1
    57    38    39    1
    58    39    40    1
    59    40    41    1
    60    41    42    1
    61    45   100    1
    62    47   101    1
    63    47   102    1
    64    47   103    1
    65    48   104    1
    66    49   105    1
    67    49   106    1
    68    49   107    1
    69    50   108    1
    70    51    59    1
    71    52   109    1
    72    52   110    1
    73    52   111    1
    74    53    54    1
    75    54    55    2
    76    54    56    1
    77    56   112    1
    78    56   113    1
    79    56   114    1
    80    57   115    1
    81    57   116    1
    82    57   117    1
    83    58   118    1
    84    58   119    1
    85    58   120    1
    86    59   121    1
    87    59   122    1
    88    59   123    1
    89    60    61    2
    90     1    47    1
    91     1    62    1
    92     2    63    1
    93     3    64    1
    94     4    65    1
    95     5     6    1
    96     7     8    2
    97     9    78    1
    98    15    79    1
    99    18    80    1
   100    18    81    1
   101    19    82    1
   102    19    83    1
   103    20    23    1
   104    21    84    1
   105    21    85    1
   106    22    86    1
   107    22    87    1
   108    27    45    1
   109    28    34    1
   110    32    58    1
   111    33    46    2
   112    36    51    1
   113    36    66    1
   114    37    52    1
   115    37    67    1
   116    38    53    1
   117    38    68    1
   118    42    48    1
   119    42    72    1
   120    43    44    2
   121    60    73    1
   122    61    74    1
   123    39    69    1
   124    39    57    1
   125    40    70    1
   126    40    50    1
   127    41    71    1
   128    41    49    1
