@<TRIPOS>MOLECULE
*****
 123 128 0 0 0
SMALL
GASTEIGER

@<TRIPOS>ATOM
     1 C         3.815031   -1.623232   2.496587 C.3        1 UNL1     0.0009
     2 C         4.879423   -3.136626   2.613827 C.2        1 UNL1     -0.0787
     3 C         5.099848   -4.482679   3.099213 C.2        1 UNL1     -0.0649
     4 C         6.381758   -5.525131   2.729946 C.2        1 UNL1     -0.0542
     5 C         6.813374   -6.874404   2.714165 C.2        1 UNL1     0.0115
     6 C         6.45712   -8.313213   3.179175 C.3        1 UNL1     -0.0348
     7 C         8.080794   -7.274129   1.81369 C.2        1 UNL1     0.2441
     8 O         9.196094   -7.461139   2.280227 O.2        1 UNL1     -0.2702
     9 N         7.771317   -7.649807   0.494886 N.am        1 UNL1     -0.2772
     10 C         7.743079   -6.545149   -0.325025 C.2        1 UNL1     0.1049
     11 C         6.61926   -5.851434   -0.328463 C.2        1 UNL1     0.0801
     12 C         9.049112   -4.505587   -0.950965 C.ar        1 UNL1     0.0753
     13 C         7.843835   -3.763882   -0.736977 C.ar        1 UNL1     0.0305
     14 C         6.55814   -4.431546   -0.546545 C.2        1 UNL1     0.0924
     15 N         5.413134   -6.158318   0.17909 N.pl3        1 UNL1     -0.3170
     16 C         4.487109   -5.141108   -0.242829 C.3        1 UNL1     0.1275
     17 N         5.33945   -3.910606   -0.435446 N.2        1 UNL1     -0.2557
     18 C         3.98767   -5.531775   -1.630504 C.3        1 UNL1     0.0016
     19 C         3.394459   -6.929792   -1.558118 C.3        1 UNL1     0.0026
     20 N         2.305484   -6.926356   -0.591086 N.3        1 UNL1     -0.3018
     21 C         2.676117   -6.503782   0.761109 C.3        1 UNL1     0.0026
     22 C         3.265367   -5.09541   0.665359 C.3        1 UNL1     0.0016
     23 C         1.484237   -8.118462   -0.662354 C.3        1 UNL1     0.0012
     24 C         0.65445   -8.124335   -1.955867 C.3        1 UNL1     -0.0339
     25 C         -0.717787   -8.783678   -1.740718 C.3        1 UNL1     -0.0615
     26 C         0.51716   -6.710305   -2.492944 C.3        1 UNL1     -0.0615
     27 C         10.248008   -3.863415   -1.251599 C.ar        1 UNL1     0.1347
     28 C         10.356514   -2.492549   -1.403272 C.ar        1 UNL1     0.0342
     29 C         9.16788   -1.779141   -1.139903 C.ar        1 UNL1     0.1435
     30 C         7.967954   -2.406369   -0.80229 C.ar        1 UNL1     0.0774
     31 O         9.083472   -0.447604   -1.351778 O.3        1 UNL1     -0.4436
     32 C         7.675259   -0.182967   -1.439958 C.3        1 UNL1     0.3143
     33 C         7.010353   -1.325153   -0.698658 C.2        1 UNL1     0.2504
     34 C         11.541165   -1.758941   -1.967649 C.3        1 UNL1     -0.0327
     35 O         7.417852   1.008865   -0.687275 O.2        1 UNL1     -0.4528
     36 C         4.441121   2.670959   -2.355988 C.3        1 UNL1     0.0854
     37 C         2.998672   2.092681   -2.625169 C.3        1 UNL1     0.0236
     38 C         1.795897   2.976716   -2.039031 C.3        1 UNL1     0.1131
     39 C         1.82694   3.440757   -0.527088 C.3        1 UNL1     0.0200
     40 C         2.279653   2.375889   0.674388 C.3        1 UNL1     0.0661
     41 C         1.671788   0.807311   0.892733 C.3        1 UNL1     0.0091
     42 C         2.482615   -0.702854   1.546466 C.3        1 UNL1     0.0661
     43 C         8.961333   -5.986847   -0.930427 C.2        1 UNL1     0.2131
     44 O         9.776232   -6.71685   -1.465004 O.2        1 UNL1     -0.2851
     45 O         11.384591   -4.655617   -1.40003 O.3        1 UNL1     -0.5056
     46 O         5.940924   -1.333956   -0.131121 O.2        1 UNL1     -0.2836
     47 C         3.852243   -0.832985   3.832292 C.3        1 UNL1     -0.0566
     48 O         1.36363   -1.047593   2.456491 O.3        1 UNL1     -0.3909
     49 C         0.916688   0.398851   -0.352449 C.3        1 UNL1     -0.0577
     50 O         3.682915   2.378145   0.843424 O.3        1 UNL1     -0.3910
     51 O         4.507363   3.784938   -1.494538 O.3        1 UNL1     -0.3753
     52 C         2.980521   0.529822   -2.579457 C.3        1 UNL1     -0.0564
     53 O         0.452403   2.608446   -2.597356 O.3        1 UNL1     -0.4608
     54 C         -0.732368   2.648034   -1.909837 C.2        1 UNL1     0.3042
     55 O         -1.365092   1.695085   -1.456642 O.2        1 UNL1     -0.2512
     56 C         -1.238872   4.040805   -1.664161 C.3        1 UNL1     0.0332
     57 C         2.4451   4.915379   -0.487781 C.3        1 UNL1     -0.0567
     58 C         7.305268   -0.278296   -2.938473 C.3        1 UNL1     0.0210
     59 C         4.807931   5.022762   -2.137433 C.3        1 UNL1     0.0372
     60 C         5.432068   1.680496   -1.853825 C.2        1 UNL1     -0.0208
     61 C         6.324661   1.774694   -0.867341 C.2        1 UNL1     0.0882
     62 H         4.568121   -1.167652   1.842359 H        1 UNL1     0.0365
     63 H         5.772807   -2.798696   2.084546 H        1 UNL1     0.0576
     64 H         4.329055   -5.025729   3.65065 H        1 UNL1     0.0615
     65 H         7.120806   -4.872265   2.257656 H        1 UNL1     0.0622
     66 H         4.802422   2.983336   -3.345901 H        1 UNL1     0.0645
     67 H         2.856575   2.221953   -3.712209 H        1 UNL1     0.0362
     68 H         1.938036   3.894978   -2.629043 H        1 UNL1     0.0741
     69 H         0.825973   3.722944   -0.229021 H        1 UNL1     0.0359
     70 H         1.893349   2.913661   1.561309 H        1 UNL1     0.0600
     71 H         0.839114   1.018311   1.592082 H        1 UNL1     0.0348
     72 H         3.091909   0.143607   1.89515 H        1 UNL1     0.0602
     73 H         5.442771   0.838521   -2.500517 H        1 UNL1     0.0628
     74 H         6.343338   2.575171   -0.126987 H        1 UNL1     0.1022
     75 H         6.161272   -8.315209   4.255977 H        1 UNL1     0.0279
     76 H         5.599405   -8.779597   2.699716 H        1 UNL1     0.0279
     77 H         7.328757   -8.983862   3.19258 H        1 UNL1     0.0279
     78 H         6.846764   -8.074743   0.468302 H        1 UNL1     0.1553
     79 H         5.127119   -7.092083   0.409765 H        1 UNL1     0.1484
     80 H         3.243601   -4.797656   -1.962461 H        1 UNL1     0.0317
     81 H         4.802695   -5.504592   -2.3617 H        1 UNL1     0.0317
     82 H         4.153878   -7.681249   -1.296382 H        1 UNL1     0.0428
     83 H         3.04621   -7.189154   -2.55837 H        1 UNL1     0.0428
     84 H         1.826228   -6.433342   1.447068 H        1 UNL1     0.0428
     85 H         3.34999   -7.224663   1.244373 H        1 UNL1     0.0428
     86 H         3.400456   -4.768486   1.679686 H        1 UNL1     0.0317
     87 H         2.51311   -4.400382   0.272751 H        1 UNL1     0.0317
     88 H         2.149657   -8.991648   -0.670033 H        1 UNL1     0.0429
     89 H         0.840358   -8.212548   0.221581 H        1 UNL1     0.0429
     90 H         1.194886   -8.686374   -2.726746 H        1 UNL1     0.0308
     91 H         -1.159311   -8.480889   -0.786528 H        1 UNL1     0.0233
     92 H         -1.402605   -8.523739   -2.551313 H        1 UNL1     0.0233
     93 H         -0.657929   -9.878732   -1.730305 H        1 UNL1     0.0233
     94 H         -0.354097   -6.639948   -3.153094 H        1 UNL1     0.0233
     95 H         0.371342   -6.009207   -1.666409 H        1 UNL1     0.0233
     96 H         1.404041   -6.410226   -3.058065 H        1 UNL1     0.0233
     97 H         11.276984   -1.168267   -2.839741 H        1 UNL1     0.0280
     98 H         11.972946   -1.053073   -1.246143 H        1 UNL1     0.0280
     99 H         12.317392   -2.483608   -2.263323 H        1 UNL1     0.0280
     100 H         11.522958   -4.982418   -2.271625 H        1 UNL1     0.2922
     101 H         4.479911   0.050712   3.719296 H        1 UNL1     0.0236
     102 H         4.154156   -1.443022   4.68299 H        1 UNL1     0.0236
     103 H         2.860035   -0.43816   4.107664 H        1 UNL1     0.0236
     104 H         0.631383   -0.427403   2.271693 H        1 UNL1     0.2098
     105 H         0.685092   1.219542   -1.02672 H        1 UNL1     0.0234
     106 H         1.361977   -0.429052   -0.90401 H        1 UNL1     0.0234
     107 H         0.0   -0.0   0.0 H        1 UNL1     0.0234
     108 H         3.911942   1.593776   1.378289 H        1 UNL1     0.2098
     109 H         3.636097   0.083771   -3.340359 H        1 UNL1     0.0234
     110 H         3.234785   0.125086   -1.593921 H        1 UNL1     0.0234
     111 H         1.97741   0.13067   -2.780437 H        1 UNL1     0.0234
     112 H         -2.172747   4.002228   -1.095184 H        1 UNL1     0.0342
     113 H         -0.499999   4.662425   -1.160676 H        1 UNL1     0.0342
     114 H         -1.455956   4.503483   -2.63677 H        1 UNL1     0.0342
     115 H         1.995827   5.525472   0.307913 H        1 UNL1     0.0234
     116 H         3.527698   4.939352   -0.348303 H        1 UNL1     0.0234
     117 H         2.203301   5.517679   -1.380367 H        1 UNL1     0.0234
     118 H         7.04946   0.707052   -3.365858 H        1 UNL1     0.0309
     119 H         8.090165   -0.739473   -3.546302 H        1 UNL1     0.0309
     120 H         6.400355   -0.871108   -3.111134 H        1 UNL1     0.0309
     121 H         5.275566   5.672982   -1.39859 H        1 UNL1     0.0524
     122 H         5.520706   4.899629   -2.969796 H        1 UNL1     0.0524
     123 H         3.898388   5.479822   -2.516803 H        1 UNL1     0.0524
@<TRIPOS>BOND
     1     1     2    1
     2     1    42    1
     3     2     3    2
     4     3     4    1
     5     4     5    2
     6     5     7    1
     7     6    75    1
     8     6    76    1
     9     6    77    1
    10     7     9   am
    11     9    10    1
    12    10    11    2
    13    10    43    1
    14    11    14    1
    15    11    15    1
    16    12    13   ar
    17    12    27   ar
    18    12    43    1
    19    13    14    1
    20    13    30   ar
    21    14    17    2
    22    15    16    1
    23    16    17    1
    24    16    18    1
    25    16    22    1
    26    18    19    1
    27    19    20    1
    28    20    21    1
    29    21    22    1
    30    23    24    1
    31    23    88    1
    32    23    89    1
    33    24    25    1
    34    24    26    1
    35    24    90    1
    36    25    91    1
    37    25    92    1
    38    25    93    1
    39    26    94    1
    40    26    95    1
    41    26    96    1
    42    27    28   ar
    43    28    29   ar
    44    29    30   ar
    45    29    31    1
    46    30    33    1
    47    31    32    1
    48    32    33    1
    49    32    35    1
    50    34    97    1
    51    34    98    1
    52    34    99    1
    53    35    61    1
    54    36    37    1
    55    36    60    1
    56    37    38    1
    57    38    39    1
    58    39    40    1
    59    40    41    1
    60    41    42    1
    61    45   100    1
    62    47   101    1
    63    47   102    1
    64    47   103    1
    65    48   104    1
    66    49   105    1
    67    49   106    1
    68    49   107    1
    69    50   108    1
    70    51    59    1
    71    52   109    1
    72    52   110    1
    73    52   111    1
    74    53    54    1
    75    54    55    2
    76    54    56    1
    77    56   112    1
    78    56   113    1
    79    56   114    1
    80    57   115    1
    81    57   116    1
    82    57   117    1
    83    58   118    1
    84    58   119    1
    85    58   120    1
    86    59   121    1
    87    59   122    1
    88    59   123    1
    89    60    61    2
    90     1    47    1
    91     1    62    1
    92     2    63    1
    93     3    64    1
    94     4    65    1
    95     5     6    1
    96     7     8    2
    97     9    78    1
    98    15    79    1
    99    18    80    1
   100    18    81    1
   101    19    82    1
   102    19    83    1
   103    20    23    1
   104    21    84    1
   105    21    85    1
   106    22    86    1
   107    22    87    1
   108    27    45    1
   109    28    34    1
   110    32    58    1
   111    33    46    2
   112    36    51    1
   113    36    66    1
   114    37    52    1
   115    37    67    1
   116    38    53    1
   117    38    68    1
   118    42    48    1
   119    42    72    1
   120    43    44    2
   121    60    73    1
   122    61    74    1
   123    39    69    1
   124    39    57    1
   125    40    70    1
   126    40    50    1
   127    41    71    1
   128    41    49    1
