@<TRIPOS>MOLECULE
*****
 123 128 0 0 0
SMALL
GASTEIGER

@<TRIPOS>ATOM
     1 C         3.062253   2.46918   -1.310926 C.3        1 UNL1     0.0009
     2 C         3.029789   4.316688   -1.461581 C.2        1 UNL1     -0.0787
     3 C         2.885843   5.508598   -2.270701 C.2        1 UNL1     -0.0649
     4 C         2.834571   7.119103   -1.751084 C.2        1 UNL1     -0.0542
     5 C         2.443606   8.437322   -2.092436 C.2        1 UNL1     0.0115
     6 C         1.935479   9.336644   -3.252759 C.3        1 UNL1     -0.0348
     7 C         2.295445   9.530314   -0.926071 C.2        1 UNL1     0.2441
     8 O         3.139451   10.388348   -0.707079 O.2        1 UNL1     -0.2702
     9 N         1.01779   9.601077   -0.344057 N.am        1 UNL1     -0.2772
     10 C         0.916023   8.711288   0.700568 C.2        1 UNL1     0.1049
     11 C         0.627572   7.463866   0.3766 C.2        1 UNL1     0.0801
     12 C         2.087444   7.942859   2.772916 C.ar        1 UNL1     0.0753
     13 C         1.932646   6.610937   2.272288 C.ar        1 UNL1     0.0305
     14 C         1.080966   6.320383   1.121084 C.2        1 UNL1     0.0924
     15 N         0.208128   6.949891   -0.792342 N.pl3        1 UNL1     -0.3170
     16 C         -0.127687   5.568612   -0.569742 C.3        1 UNL1     0.1275
     17 N         0.745663   5.149179   0.587435 N.2        1 UNL1     -0.2557
     18 C         -1.562702   5.529746   -0.053096 C.3        1 UNL1     0.0016
     19 C         -2.459468   6.240367   -1.054305 C.3        1 UNL1     0.0026
     20 N         -2.347675   5.568526   -2.341613 N.3        1 UNL1     -0.3018
     21 C         -0.992321   5.500656   -2.891864 C.3        1 UNL1     0.0026
     22 C         -0.109689   4.779062   -1.871984 C.3        1 UNL1     0.0016
     23 C         -3.375708   5.972808   -3.279882 C.3        1 UNL1     0.0012
     24 C         -4.745714   5.428849   -2.845199 C.3        1 UNL1     -0.0339
     25 C         -5.688655   6.562671   -2.410038 C.3        1 UNL1     -0.0615
     26 C         -5.352174   4.59424   -3.959836 C.3        1 UNL1     -0.0615
     27 C         2.802515   8.196277   3.941065 C.ar        1 UNL1     0.1347
     28 C         3.371721   7.19916   4.712954 C.ar        1 UNL1     0.0342
     29 C         3.248308   5.900621   4.174688 C.ar        1 UNL1     0.1435
     30 C         2.565878   5.635671   2.986702 C.ar        1 UNL1     0.0774
     31 O         3.653774   4.811045   4.862749 O.3        1 UNL1     -0.4436
     32 C         2.959037   3.715084   4.248676 C.3        1 UNL1     0.3143
     33 C         2.617825   4.194828   2.852384 C.2        1 UNL1     0.2504
     34 C         3.931998   7.367683   6.097797 C.3        1 UNL1     -0.0327
     35 O         3.898526   2.642924   4.103471 O.2        1 UNL1     -0.4528
     36 C         1.868882   -0.556789   4.328128 C.3        1 UNL1     0.0854
     37 C         0.645437   -1.02435   3.449441 C.3        1 UNL1     0.0236
     38 C         0.822336   -2.457957   2.752861 C.3        1 UNL1     0.1131
     39 C         2.129443   -2.769348   1.918129 C.3        1 UNL1     0.0200
     40 C         2.74842   -1.635143   0.863196 C.3        1 UNL1     0.0661
     41 C         1.871065   -0.798773   -0.32354 C.3        1 UNL1     0.0091
     42 C         2.088269   0.896334   -0.990501 C.3        1 UNL1     0.0661
     43 C         1.385653   9.036152   2.055657 C.2        1 UNL1     0.2131
     44 O         1.108295   10.106427   2.565873 O.2        1 UNL1     -0.2851
     45 O         2.944694   9.525221   4.33493 O.3        1 UNL1     -0.5056
     46 O         2.448946   3.537221   1.849944 O.2        1 UNL1     -0.2836
     47 C         4.39414   1.905446   -1.875071 C.3        1 UNL1     -0.0566
     48 O         1.985899   0.474379   -2.408453 O.3        1 UNL1     -0.3909
     49 C         0.393456   -0.982559   -0.058227 C.3        1 UNL1     -0.0577
     50 O         3.618969   -0.747676   1.535708 O.3        1 UNL1     -0.3910
     51 O         3.023603   -1.36218   4.254673 O.3        1 UNL1     -0.3753
     52 C         -0.0381   0.176641   2.717766 C.3        1 UNL1     -0.0564
     53 O         -0.460059   -3.031342   2.224638 O.3        1 UNL1     -0.4608
     54 C         -0.572104   -4.177201   1.481414 C.2        1 UNL1     0.3042
     55 O         -0.810786   -4.266318   0.2777 O.2        1 UNL1     -0.2512
     56 C         -0.309638   -5.431044   2.266081 C.3        1 UNL1     0.0332
     57 C         3.15399   -3.52148   2.889094 C.3        1 UNL1     -0.0567
     58 C         1.647372   3.526886   5.045949 C.3        1 UNL1     0.0210
     59 C         3.284004   -2.144233   5.41934 C.3        1 UNL1     0.0372
     60 C         2.308785   0.846272   4.097768 C.2        1 UNL1     -0.0208
     61 C         3.53276   1.355575   3.952026 C.2        1 UNL1     0.0882
     62 H         3.202358   2.57905   -0.228793 H        1 UNL1     0.0365
     63 H         3.280876   4.60872   -0.439748 H        1 UNL1     0.0576
     64 H         2.623271   5.453405   -3.32953 H        1 UNL1     0.0615
     65 H         3.186426   7.070624   -0.716999 H        1 UNL1     0.0622
     66 H         1.49526   -0.589656   5.361266 H        1 UNL1     0.0645
     67 H         -0.148973   -1.234954   4.186407 H        1 UNL1     0.0362
     68 H         0.891544   -3.091299   3.650419 H        1 UNL1     0.0741
     69 H         1.936019   -3.614439   1.270968 H        1 UNL1     0.0359
     70 H         3.419411   -2.279086   0.263055 H        1 UNL1     0.0600
     71 H         2.022093   -1.47479   -1.187917 H        1 UNL1     0.0348
     72 H         3.04526   0.63146   -0.517927 H        1 UNL1     0.0602
     73 H         1.471594   1.493461   4.184399 H        1 UNL1     0.0628
     74 H         4.433818   0.760887   3.798145 H        1 UNL1     0.1022
     75 H         2.546447   9.171872   -4.172869 H        1 UNL1     0.0279
     76 H         0.924288   9.147534   -3.606029 H        1 UNL1     0.0279
     77 H         2.106933   10.40715   -3.067497 H        1 UNL1     0.0279
     78 H         0.313397   9.346245   -1.033237 H        1 UNL1     0.1553
     79 H         -0.201713   7.497578   -1.52651 H        1 UNL1     0.1484
     80 H         -1.865106   4.484523   0.084116 H        1 UNL1     0.0317
     81 H         -1.638234   6.009365   0.928694 H        1 UNL1     0.0317
     82 H         -2.206906   7.307387   -1.14144 H        1 UNL1     0.0428
     83 H         -3.477521   6.202534   -0.665477 H        1 UNL1     0.0428
     84 H         -0.923593   4.922483   -3.818581 H        1 UNL1     0.0428
     85 H         -0.613228   6.494172   -3.168511 H        1 UNL1     0.0428
     86 H         0.835239   4.630199   -2.360798 H        1 UNL1     0.0317
     87 H         -0.477488   3.757821   -1.714226 H        1 UNL1     0.0317
     88 H         -3.420912   7.069723   -3.285284 H        1 UNL1     0.0429
     89 H         -3.129925   5.656017   -4.301649 H        1 UNL1     0.0429
     90 H         -4.608633   4.744715   -1.999396 H        1 UNL1     0.0308
     91 H         -5.407151   7.51355   -2.872301 H        1 UNL1     0.0233
     92 H         -6.722552   6.327888   -2.673751 H        1 UNL1     0.0233
     93 H         -5.678304   6.721116   -1.324855 H        1 UNL1     0.0233
     94 H         -6.356694   4.26051   -3.678057 H        1 UNL1     0.0233
     95 H         -5.439124   5.193597   -4.870426 H        1 UNL1     0.0233
     96 H         -4.742565   3.712105   -4.17474 H        1 UNL1     0.0233
     97 H         3.434689   6.72639   6.819362 H        1 UNL1     0.0280
     98 H         4.997221   7.10681   6.147825 H        1 UNL1     0.0280
     99 H         3.807192   8.413948   6.421598 H        1 UNL1     0.0280
     100 H         3.235199   10.106404   3.654154 H        1 UNL1     0.2922
     101 H         5.047752   1.614527   -1.052992 H        1 UNL1     0.0236
     102 H         4.887536   2.585167   -2.56899 H        1 UNL1     0.0236
     103 H         4.240087   0.978132   -2.451743 H        1 UNL1     0.0236
     104 H         2.787897   -0.041864   -2.621203 H        1 UNL1     0.2098
     105 H         -0.141858   -1.50928   -0.844239 H        1 UNL1     0.0234
     106 H         0.15552   -1.412698   0.914549 H        1 UNL1     0.0234
     107 H         0.0   0.0   0.0 H        1 UNL1     0.0234
     108 H         3.713441   0.046447   0.975162 H        1 UNL1     0.2098
     109 H         -0.433876   0.921889   3.421811 H        1 UNL1     0.0234
     110 H         0.619069   0.669685   1.993349 H        1 UNL1     0.0234
     111 H         -0.89741   -0.151095   2.117666 H        1 UNL1     0.0234
     112 H         -0.394298   -6.304068   1.611858 H        1 UNL1     0.0342
     113 H         0.658931   -5.407833   2.763252 H        1 UNL1     0.0342
     114 H         -1.081009   -5.516904   3.043757 H        1 UNL1     0.0342
     115 H         2.690897   -4.389653   3.37798 H        1 UNL1     0.0234
     116 H         4.061865   -3.869778   2.392605 H        1 UNL1     0.0234
     117 H         3.453888   -2.919166   3.763864 H        1 UNL1     0.0234
     118 H         1.650835   2.593369   5.635475 H        1 UNL1     0.0309
     119 H         1.423174   4.368422   5.709089 H        1 UNL1     0.0309
     120 H         0.773148   3.411821   4.395873 H        1 UNL1     0.0309
     121 H         2.673147   -3.044304   5.355442 H        1 UNL1     0.0524
     122 H         4.338012   -2.462172   5.482734 H        1 UNL1     0.0524
     123 H         3.030872   -1.582154   6.313815 H        1 UNL1     0.0524
@<TRIPOS>BOND
     1     1     2    1
     2     1    42    1
     3     2     3    2
     4     3     4    1
     5     4     5    2
     6     5     7    1
     7     6    75    1
     8     6    76    1
     9     6    77    1
    10     7     9   am
    11     9    10    1
    12    10    11    2
    13    10    43    1
    14    11    14    1
    15    11    15    1
    16    12    13   ar
    17    12    27   ar
    18    12    43    1
    19    13    14    1
    20    13    30   ar
    21    14    17    2
    22    15    16    1
    23    16    17    1
    24    16    18    1
    25    16    22    1
    26    18    19    1
    27    19    20    1
    28    20    21    1
    29    21    22    1
    30    23    24    1
    31    23    88    1
    32    23    89    1
    33    24    25    1
    34    24    26    1
    35    24    90    1
    36    25    91    1
    37    25    92    1
    38    25    93    1
    39    26    94    1
    40    26    95    1
    41    26    96    1
    42    27    28   ar
    43    28    29   ar
    44    29    30   ar
    45    29    31    1
    46    30    33    1
    47    31    32    1
    48    32    33    1
    49    32    35    1
    50    34    97    1
    51    34    98    1
    52    34    99    1
    53    35    61    1
    54    36    37    1
    55    36    60    1
    56    37    38    1
    57    38    39    1
    58    39    40    1
    59    40    41    1
    60    41    42    1
    61    45   100    1
    62    47   101    1
    63    47   102    1
    64    47   103    1
    65    48   104    1
    66    49   105    1
    67    49   106    1
    68    49   107    1
    69    50   108    1
    70    51    59    1
    71    52   109    1
    72    52   110    1
    73    52   111    1
    74    53    54    1
    75    54    55    2
    76    54    56    1
    77    56   112    1
    78    56   113    1
    79    56   114    1
    80    57   115    1
    81    57   116    1
    82    57   117    1
    83    58   118    1
    84    58   119    1
    85    58   120    1
    86    59   121    1
    87    59   122    1
    88    59   123    1
    89    60    61    2
    90     1    47    1
    91     1    62    1
    92     2    63    1
    93     3    64    1
    94     4    65    1
    95     5     6    1
    96     7     8    2
    97     9    78    1
    98    15    79    1
    99    18    80    1
   100    18    81    1
   101    19    82    1
   102    19    83    1
   103    20    23    1
   104    21    84    1
   105    21    85    1
   106    22    86    1
   107    22    87    1
   108    27    45    1
   109    28    34    1
   110    32    58    1
   111    33    46    2
   112    36    51    1
   113    36    66    1
   114    37    52    1
   115    37    67    1
   116    38    53    1
   117    38    68    1
   118    42    48    1
   119    42    72    1
   120    43    44    2
   121    60    73    1
   122    61    74    1
   123    39    69    1
   124    39    57    1
   125    40    70    1
   126    40    50    1
   127    41    71    1
   128    41    49    1
