@<TRIPOS>MOLECULE
*****
 123 128 0 0 0
SMALL
GASTEIGER

@<TRIPOS>ATOM
     1 C         1.300366   -3.252762   -2.7938 C.3        1 UNL1     0.0009
     2 C         2.99471   -3.937738   -3.105318 C.2        1 UNL1     -0.0787
     3 C         4.136705   -4.116002   -3.977164 C.2        1 UNL1     -0.0649
     4 C         5.625122   -4.833806   -3.60875 C.2        1 UNL1     -0.0542
     5 C         6.98582   -4.94499   -3.987191 C.2        1 UNL1     0.0115
     6 C         8.011463   -4.605259   -5.103418 C.3        1 UNL1     -0.0348
     7 C         8.045325   -5.507795   -2.920566 C.2        1 UNL1     0.2441
     8 O         8.476998   -6.652006   -2.951623 O.2        1 UNL1     -0.2702
     9 N         8.640992   -4.527133   -2.108386 N.am        1 UNL1     -0.2772
     10 C         7.876477   -4.303635   -0.986385 C.2        1 UNL1     0.1049
     11 C         6.859866   -3.473044   -1.130752 C.2        1 UNL1     0.0801
     12 C         6.697701   -5.48342   0.877999 C.ar        1 UNL1     0.0753
     13 C         5.548276   -4.699164   0.542778 C.ar        1 UNL1     0.0305
     14 C         5.633492   -3.575333   -0.387165 C.2        1 UNL1     0.0924
     15 N         6.562551   -2.639214   -2.142117 N.pl3        1 UNL1     -0.3170
     16 C         5.445355   -1.830934   -1.731251 C.3        1 UNL1     0.1275
     17 N         4.705049   -2.688447   -0.734084 N.2        1 UNL1     -0.2557
     18 C         6.006286   -0.651964   -0.941891 C.3        1 UNL1     0.0016
     19 C         7.021749   0.074892   -1.809129 C.3        1 UNL1     0.0026
     20 N         6.360234   0.52607   -3.025626 N.3        1 UNL1     -0.3018
     21 C         5.735088   -0.531696   -3.822303 C.3        1 UNL1     0.0026
     22 C         4.71555   -1.245606   -2.933051 C.3        1 UNL1     0.0016
     23 C         7.151506   1.479712   -3.777358 C.3        1 UNL1     0.0012
     24 C         7.225589   2.82276   -3.034061 C.3        1 UNL1     -0.0339
     25 C         8.659122   3.37845   -3.018294 C.3        1 UNL1     -0.0615
     26 C         6.249402   3.811755   -3.647027 C.3        1 UNL1     -0.0615
     27 C         6.635361   -6.474517   1.854708 C.ar        1 UNL1     0.1347
     28 C         5.494267   -6.744807   2.588804 C.ar        1 UNL1     0.0342
     29 C         4.362104   -5.993772   2.207598 C.ar        1 UNL1     0.1435
     30 C         4.400362   -5.022721   1.206191 C.ar        1 UNL1     0.0774
     31 O         3.204488   -6.063018   2.900518 O.3        1 UNL1     -0.4436
     32 C         2.493264   -4.869677   2.538618 C.3        1 UNL1     0.3143
     33 C         3.067195   -4.457595   1.198094 C.2        1 UNL1     0.2504
     34 C         5.419462   -7.611017   3.815256 C.3        1 UNL1     -0.0327
     35 O         1.127715   -5.239896   2.311758 O.2        1 UNL1     -0.4528
     36 C         -0.942284   -2.192056   3.224919 C.3        1 UNL1     0.0854
     37 C         -0.863266   -0.725404   2.650279 C.3        1 UNL1     0.0236
     38 C         -2.243285   -0.152356   2.068121 C.3        1 UNL1     0.1131
     39 C         -3.070884   -1.007178   1.025707 C.3        1 UNL1     0.0200
     40 C         -2.298341   -1.786833   -0.23038 C.3        1 UNL1     0.0661
     41 C         -1.177027   -1.087815   -1.294166 C.3        1 UNL1     0.0091
     42 C         0.27363   -1.82116   -2.144579 C.3        1 UNL1     0.0661
     43 C         7.981435   -5.146007   0.214343 C.2        1 UNL1     0.2131
     44 O         9.071896   -5.442577   0.667861 O.2        1 UNL1     -0.2851
     45 O         7.786993   -7.223212   2.088455 O.3        1 UNL1     -0.5056
     46 O         2.535799   -3.824498   0.313413 O.2        1 UNL1     -0.2836
     47 C         0.233642   -4.086308   -3.553593 C.3        1 UNL1     -0.0566
     48 O         -0.072093   -1.252306   -3.469719 O.3        1 UNL1     -0.3909
     49 C         -0.731063   0.242046   -0.72841 C.3        1 UNL1     -0.0577
     50 O         -1.849557   -3.06484   0.173368 O.3        1 UNL1     -0.3910
     51 O         -2.154058   -2.87689   3.00123 O.3        1 UNL1     -0.3753
     52 C         0.510871   -0.444605   1.959012 C.3        1 UNL1     -0.0564
     53 O         -2.235113   1.333467   1.856955 O.3        1 UNL1     -0.4608
     54 C         -2.176157   1.963511   0.641431 C.2        1 UNL1     0.3042
     55 O         -1.193891   2.08639   -0.089248 O.2        1 UNL1     -0.2512
     56 C         -3.501224   2.495927   0.175121 C.3        1 UNL1     0.0332
     57 C         -4.177177   -1.824263   1.842201 C.3        1 UNL1     -0.0567
     58 C         2.86799   -3.800824   3.591548 C.3        1 UNL1     0.0210
     59 C         -2.240073   -4.160278   3.618791 C.3        1 UNL1     0.0372
     60 C         0.151569   -3.099956   2.784051 C.2        1 UNL1     -0.0208
     61 C         0.10732   -4.361865   2.354664 C.2        1 UNL1     0.0882
     62 H         1.345451   -3.656253   -1.775039 H        1 UNL1     0.0365
     63 H         3.159396   -4.500386   -2.184028 H        1 UNL1     0.0576
     64 H         4.192207   -3.630822   -4.954214 H        1 UNL1     0.0615
     65 H         5.438194   -5.351077   -2.663778 H        1 UNL1     0.0622
     66 H         -0.81431   -2.070715   4.30979 H        1 UNL1     0.0645
     67 H         -0.7235   -0.094098   3.544973 H        1 UNL1     0.0362
     68 H         -2.845717   -0.152534   2.989315 H        1 UNL1     0.0741
     69 H         -3.761686   -0.353534   0.510003 H        1 UNL1     0.0359
     70 H         -3.164234   -1.992842   -0.888294 H        1 UNL1     0.0600
     71 H         -1.857368   -0.761503   -2.1051 H        1 UNL1     0.0348
     72 H         -0.362692   -2.667041   -1.846424 H        1 UNL1     0.0602
     73 H         1.0878   -2.63624   2.972961 H        1 UNL1     0.0628
     74 H         -0.8078   -4.888973   2.082727 H        1 UNL1     0.1022
     75 H         7.605582   -4.882172   -6.106221 H        1 UNL1     0.0279
     76 H         8.257448   -3.553643   -5.232505 H        1 UNL1     0.0279
     77 H         8.915157   -5.230326   -5.055159 H        1 UNL1     0.0279
     78 H         8.699022   -3.648787   -2.619481 H        1 UNL1     0.1553
     79 H         7.228697   -2.337134   -2.829089 H        1 UNL1     0.1484
     80 H         5.18082   0.009352   -0.652004 H        1 UNL1     0.0317
     81 H         6.476946   -0.991466   -0.012984 H        1 UNL1     0.0317
     82 H         7.887857   -0.561793   -2.042372 H        1 UNL1     0.0428
     83 H         7.410423   0.910609   -1.22641 H        1 UNL1     0.0428
     84 H         5.177719   -0.158265   -4.687 H        1 UNL1     0.0428
     85 H         6.481302   -1.210044   -4.258566 H        1 UNL1     0.0428
     86 H         4.18699   -1.919228   -3.581777 H        1 UNL1     0.0317
     87 H         3.939075   -0.540318   -2.6125 H        1 UNL1     0.0317
     88 H         8.168476   1.077847   -3.875183 H        1 UNL1     0.0429
     89 H         6.758344   1.610792   -4.793732 H        1 UNL1     0.0429
     90 H         6.895479   2.678815   -1.998436 H        1 UNL1     0.0308
     91 H         9.215885   3.067859   -3.90748 H        1 UNL1     0.0233
     92 H         8.649884   4.46958   -2.963914 H        1 UNL1     0.0233
     93 H         9.231096   3.033756   -2.148312 H        1 UNL1     0.0233
     94 H         6.396231   4.806291   -3.212085 H        1 UNL1     0.0233
     95 H         6.420394   3.88647   -4.72459 H        1 UNL1     0.0233
     96 H         5.212951   3.508616   -3.474271 H        1 UNL1     0.0233
     97 H         4.711206   -7.226487   4.543089 H        1 UNL1     0.0280
     98 H         5.086756   -8.63088   3.581928 H        1 UNL1     0.0280
     99 H         6.411915   -7.661816   4.292279 H        1 UNL1     0.0280
     100 H         8.193498   -7.568622   1.313169 H        1 UNL1     0.2922
     101 H         -0.299612   -4.727826   -2.852344 H        1 UNL1     0.0236
     102 H         0.645689   -4.648988   -4.390607 H        1 UNL1     0.0236
     103 H         -0.548098   -3.44971   -4.000604 H        1 UNL1     0.0236
     104 H         -0.652231   -1.894211   -3.923997 H        1 UNL1     0.2098
     105 H         -0.26999   0.907035   -1.454367 H        1 UNL1     0.0234
     106 H         -1.493901   0.773929   -0.159986 H        1 UNL1     0.0234
     107 H         0.0   0.0   0.0 H        1 UNL1     0.0234
     108 H         -1.167661   -3.348143   -0.465791 H        1 UNL1     0.2098
     109 H         0.46438   -0.582357   0.869712 H        1 UNL1     0.0234
     110 H         0.911675   0.549188   2.185895 H        1 UNL1     0.0234
     111 H         1.289986   -1.132969   2.31268 H        1 UNL1     0.0234
     112 H         -3.386292   2.977261   -0.800816 H        1 UNL1     0.0342
     113 H         -4.265013   1.720498   0.140796 H        1 UNL1     0.0342
     114 H         -3.834795   3.260286   0.890419 H        1 UNL1     0.0342
     115 H         -4.773885   -1.16792   2.490539 H        1 UNL1     0.0234
     116 H         -4.871898   -2.382711   1.211687 H        1 UNL1     0.0234
     117 H         -3.750781   -2.523776   2.581666 H        1 UNL1     0.0234
     118 H         2.018732   -3.554514   4.252682 H        1 UNL1     0.0309
     119 H         3.7287   -4.085364   4.205076 H        1 UNL1     0.0309
     120 H         3.123721   -2.836502   3.139009 H        1 UNL1     0.0309
     121 H         -1.473013   -4.792819   3.172845 H        1 UNL1     0.0524
     122 H         -2.045153   -4.116616   4.70329 H        1 UNL1     0.0524
     123 H         -3.223572   -4.591325   3.454401 H        1 UNL1     0.0524
@<TRIPOS>BOND
     1     1     2    1
     2     1    42    1
     3     2     3    2
     4     3     4    1
     5     4     5    2
     6     5     7    1
     7     6    75    1
     8     6    76    1
     9     6    77    1
    10     7     9   am
    11     9    10    1
    12    10    11    2
    13    10    43    1
    14    11    14    1
    15    11    15    1
    16    12    13   ar
    17    12    27   ar
    18    12    43    1
    19    13    14    1
    20    13    30   ar
    21    14    17    2
    22    15    16    1
    23    16    17    1
    24    16    18    1
    25    16    22    1
    26    18    19    1
    27    19    20    1
    28    20    21    1
    29    21    22    1
    30    23    24    1
    31    23    88    1
    32    23    89    1
    33    24    25    1
    34    24    26    1
    35    24    90    1
    36    25    91    1
    37    25    92    1
    38    25    93    1
    39    26    94    1
    40    26    95    1
    41    26    96    1
    42    27    28   ar
    43    28    29   ar
    44    29    30   ar
    45    29    31    1
    46    30    33    1
    47    31    32    1
    48    32    33    1
    49    32    35    1
    50    34    97    1
    51    34    98    1
    52    34    99    1
    53    35    61    1
    54    36    37    1
    55    36    60    1
    56    37    38    1
    57    38    39    1
    58    39    40    1
    59    40    41    1
    60    41    42    1
    61    45   100    1
    62    47   101    1
    63    47   102    1
    64    47   103    1
    65    48   104    1
    66    49   105    1
    67    49   106    1
    68    49   107    1
    69    50   108    1
    70    51    59    1
    71    52   109    1
    72    52   110    1
    73    52   111    1
    74    53    54    1
    75    54    55    2
    76    54    56    1
    77    56   112    1
    78    56   113    1
    79    56   114    1
    80    57   115    1
    81    57   116    1
    82    57   117    1
    83    58   118    1
    84    58   119    1
    85    58   120    1
    86    59   121    1
    87    59   122    1
    88    59   123    1
    89    60    61    2
    90     1    47    1
    91     1    62    1
    92     2    63    1
    93     3    64    1
    94     4    65    1
    95     5     6    1
    96     7     8    2
    97     9    78    1
    98    15    79    1
    99    18    80    1
   100    18    81    1
   101    19    82    1
   102    19    83    1
   103    20    23    1
   104    21    84    1
   105    21    85    1
   106    22    86    1
   107    22    87    1
   108    27    45    1
   109    28    34    1
   110    32    58    1
   111    33    46    2
   112    36    51    1
   113    36    66    1
   114    37    52    1
   115    37    67    1
   116    38    53    1
   117    38    68    1
   118    42    48    1
   119    42    72    1
   120    43    44    2
   121    60    73    1
   122    61    74    1
   123    39    69    1
   124    39    57    1
   125    40    70    1
   126    40    50    1
   127    41    71    1
   128    41    49    1
