@<TRIPOS>MOLECULE
*****
 123 128 0 0 0
SMALL
GASTEIGER

@<TRIPOS>ATOM
     1 C         2.184926   3.991017   -3.05117 C.3        1 UNL1     0.0009
     2 C         3.528542   4.449912   -4.243289 C.2        1 UNL1     -0.0787
     3 C         4.80016   5.084719   -4.519065 C.2        1 UNL1     -0.0649
     4 C         5.677539   5.071392   -5.966956 C.2        1 UNL1     -0.0542
     5 C         6.953499   5.259625   -6.553105 C.2        1 UNL1     0.0115
     6 C         8.397013   5.767252   -6.284954 C.3        1 UNL1     -0.0348
     7 C         7.229235   4.669108   -8.020159 C.2        1 UNL1     0.2441
     8 O         7.23344   5.363771   -9.02711 O.2        1 UNL1     -0.2702
     9 N         7.722206   3.352807   -8.042145 N.am        1 UNL1     -0.2772
     10 C         6.68303   2.450958   -8.052329 C.2        1 UNL1     0.1049
     11 C         6.15119   2.162492   -6.87838 C.2        1 UNL1     0.0801
     12 C         4.525128   1.924041   -9.202612 C.ar        1 UNL1     0.0753
     13 C         3.943943   1.8273   -7.898207 C.ar        1 UNL1     0.0305
     14 C         4.768714   1.814002   -6.692127 C.2        1 UNL1     0.0924
     15 N         6.58931   2.443234   -5.639122 N.pl3        1 UNL1     -0.3170
     16 C         5.735642   1.757806   -4.705476 C.3        1 UNL1     0.1275
     17 N         4.413824   1.633357   -5.423133 N.2        1 UNL1     -0.2557
     18 C         6.273577   0.337595   -4.55943 C.3        1 UNL1     0.0016
     19 C         7.732762   0.411105   -4.138758 C.3        1 UNL1     0.0026
     20 N         7.820435   1.136722   -2.879067 N.3        1 UNL1     -0.3018
     21 C         7.270718   2.493768   -2.903709 C.3        1 UNL1     0.0026
     22 C         5.803238   2.395763   -3.324176 C.3        1 UNL1     0.0016
     23 C         9.115868   1.006521   -2.242242 C.3        1 UNL1     0.0012
     24 C         10.100145   2.043025   -2.806701 C.3        1 UNL1     -0.0339
     25 C         11.533511   1.488865   -2.855948 C.3        1 UNL1     -0.0615
     26 C         9.634923   2.512207   -4.17426 C.3        1 UNL1     -0.0615
     27 C         3.74406   1.814643   -10.350691 C.ar        1 UNL1     0.1347
     28 C         2.382845   1.569157   -10.321042 C.ar        1 UNL1     0.0342
     29 C         1.824397   1.526397   -9.025869 C.ar        1 UNL1     0.1435
     30 C         2.58861   1.670378   -7.86722 C.ar        1 UNL1     0.0774
     31 O         0.532095   1.186987   -8.826466 O.3        1 UNL1     -0.4436
     32 C         0.468535   0.79623   -7.446559 C.3        1 UNL1     0.3143
     33 C         1.64444   1.485968   -6.784952 C.2        1 UNL1     0.2504
     34 C         1.529146   1.191567   -11.499483 C.3        1 UNL1     -0.0327
     35 O         -0.719828   1.375693   -6.894049 O.2        1 UNL1     -0.4528
     36 C         -1.855532   -0.992787   -4.153873 C.3        1 UNL1     0.0854
     37 C         -1.070099   -1.49376   -2.881221 C.3        1 UNL1     0.0236
     38 C         -1.81469   -1.239183   -1.483895 C.3        1 UNL1     0.1131
     39 C         -2.368498   0.202229   -1.140534 C.3        1 UNL1     0.0200
     40 C         -1.449681   1.557908   -1.457314 C.3        1 UNL1     0.0661
     41 C         0.171396   1.785759   -1.012564 C.3        1 UNL1     0.0091
     42 C         1.514341   2.717229   -1.84579 C.3        1 UNL1     0.0661
     43 C         6.000529   2.055292   -9.293295 C.2        1 UNL1     0.2131
     44 O         6.642833   1.760055   -10.284768 O.2        1 UNL1     -0.2851
     45 O         4.380647   1.966012   -11.580847 O.3        1 UNL1     -0.5056
     46 O         1.765512   1.826682   -5.629483 O.2        1 UNL1     -0.2836
     47 C         1.318309   5.23331   -2.711076 C.3        1 UNL1     -0.0566
     48 O         1.953807   3.411474   -0.611282 O.3        1 UNL1     -0.3909
     49 C         0.753377   0.455016   -0.590766 C.3        1 UNL1     -0.0577
     50 O         -1.654191   2.003383   -2.783003 O.3        1 UNL1     -0.3910
     51 O         -3.017758   -0.235666   -3.902019 O.3        1 UNL1     -0.3753
     52 C         0.474941   -1.316919   -3.044099 C.3        1 UNL1     -0.0564
     53 O         -1.233101   -2.0208   -0.342336 O.3        1 UNL1     -0.4608
     54 C         -1.104873   -1.570883   0.945709 C.2        1 UNL1     0.3042
     55 O         -0.081401   -1.16958   1.498249 O.2        1 UNL1     -0.2512
     56 C         -2.402382   -1.534226   1.70191 C.3        1 UNL1     0.0332
     57 C         -3.913546   0.236054   -1.552672 C.3        1 UNL1     -0.0567
     58 C         0.703378   -0.731932   -7.413424 C.3        1 UNL1     0.0210
     59 C         -4.244246   -0.910563   -4.177889 C.3        1 UNL1     0.0372
     60 C         -1.042014   -0.218386   -5.130424 C.2        1 UNL1     -0.0208
     61 C         -1.316566   0.91471   -5.778081 C.2        1 UNL1     0.0882
     62 H         1.670613   3.463581   -3.863577 H        1 UNL1     0.0365
     63 H         3.103849   4.082707   -5.179915 H        1 UNL1     0.0576
     64 H         5.409553   5.5159   -3.721675 H        1 UNL1     0.0615
     65 H         4.959161   4.701556   -6.703595 H        1 UNL1     0.0622
     66 H         -2.154463   -1.913749   -4.673983 H        1 UNL1     0.0645
     67 H         -1.113229   -2.594291   -2.955583 H        1 UNL1     0.0362
     68 H         -2.706688   -1.866382   -1.633837 H        1 UNL1     0.0741
     69 H         -2.528348   0.26836   -0.072601 H        1 UNL1     0.0359
     70 H         -1.981742   2.299453   -0.831149 H        1 UNL1     0.0600
     71 H         0.034809   2.283363   -0.032416 H        1 UNL1     0.0348
     72 H         0.573044   3.105815   -2.26085 H        1 UNL1     0.0602
     73 H         -0.172158   -0.774174   -5.378814 H        1 UNL1     0.0628
     74 H         -2.155034   1.57139   -5.543602 H        1 UNL1     0.1022
     75 H         8.632204   6.642661   -6.937164 H        1 UNL1     0.0279
     76 H         8.597264   6.156472   -5.289226 H        1 UNL1     0.0279
     77 H         9.166452   5.047991   -6.601701 H        1 UNL1     0.0279
     78 H         8.270552   3.178858   -7.202421 H        1 UNL1     0.1553
     79 H         7.537901   2.692315   -5.42683 H        1 UNL1     0.1484
     80 H         5.669505   -0.199028   -3.817878 H        1 UNL1     0.0317
     81 H         6.178984   -0.215324   -5.500166 H        1 UNL1     0.0317
     82 H         8.356088   0.883777   -4.912036 H        1 UNL1     0.0428
     83 H         8.096916   -0.612181   -4.042184 H        1 UNL1     0.0428
     84 H         7.276272   2.987079   -1.926762 H        1 UNL1     0.0428
     85 H         7.862231   3.162863   -3.543819 H        1 UNL1     0.0428
     86 H         5.400622   3.384273   -3.20278 H        1 UNL1     0.0317
     87 H         5.242579   1.801709   -2.592154 H        1 UNL1     0.0317
     88 H         8.988748   1.194058   -1.168014 H        1 UNL1     0.0429
     89 H         9.510781   -0.012294   -2.346333 H        1 UNL1     0.0429
     90 H         10.09156   2.932698   -2.165904 H        1 UNL1     0.0308
     91 H         12.243686   2.251815   -3.188607 H        1 UNL1     0.0233
     92 H         11.838486   1.118674   -1.874338 H        1 UNL1     0.0233
     93 H         11.630293   0.641779   -3.545813 H        1 UNL1     0.0233
     94 H         10.352546   3.226032   -4.592957 H        1 UNL1     0.0233
     95 H         9.567541   1.661499   -4.858158 H        1 UNL1     0.0233
     96 H         8.656862   2.998208   -4.117981 H        1 UNL1     0.0233
     97 H         1.033616   0.236278   -11.354215 H        1 UNL1     0.0280
     98 H         0.728793   1.920714   -11.681245 H        1 UNL1     0.0280
     99 H         2.157132   1.121282   -12.402693 H        1 UNL1     0.0280
     100 H         5.038922   2.638241   -11.600947 H        1 UNL1     0.2922
     101 H         1.963487   6.06805   -2.437926 H        1 UNL1     0.0236
     102 H         0.563311   5.034265   -1.951245 H        1 UNL1     0.0236
     103 H         0.749677   5.593319   -3.584715 H        1 UNL1     0.0236
     104 H         1.451808   3.030858   0.135778 H        1 UNL1     0.2098
     105 H         0.981344   -0.216803   -1.414478 H        1 UNL1     0.0234
     106 H         1.604313   0.524362   0.086748 H        1 UNL1     0.0234
     107 H         0.0   0.0   0.0 H        1 UNL1     0.0234
     108 H         -0.94199   2.639236   -2.988498 H        1 UNL1     0.2098
     109 H         0.871879   -1.889586   -3.893925 H        1 UNL1     0.0234
     110 H         0.781172   -0.269063   -3.133345 H        1 UNL1     0.0234
     111 H         1.019014   -1.67902   -2.161595 H        1 UNL1     0.0234
     112 H         -2.967167   -2.452951   1.516684 H        1 UNL1     0.0342
     113 H         -2.250348   -1.377432   2.768749 H        1 UNL1     0.0342
     114 H         -2.996661   -0.69138   1.322955 H        1 UNL1     0.0342
     115 H         -4.503018   0.869684   -0.87575 H        1 UNL1     0.0234
     116 H         -4.093849   0.58665   -2.570819 H        1 UNL1     0.0234
     117 H         -4.422407   -0.735769   -1.432002 H        1 UNL1     0.0234
     118 H         -0.210225   -1.285856   -7.135026 H        1 UNL1     0.0309
     119 H         1.08838   -1.128028   -8.358455 H        1 UNL1     0.0309
     120 H         1.42379   -1.029918   -6.643803 H        1 UNL1     0.0309
     121 H         -5.003913   -0.151528   -4.362631 H        1 UNL1     0.0524
     122 H         -4.18041   -1.542624   -5.079255 H        1 UNL1     0.0524
     123 H         -4.530871   -1.529797   -3.332614 H        1 UNL1     0.0524
@<TRIPOS>BOND
     1     1     2    1
     2     1    42    1
     3     2     3    2
     4     3     4    1
     5     4     5    2
     6     5     7    1
     7     6    75    1
     8     6    76    1
     9     6    77    1
    10     7     9   am
    11     9    10    1
    12    10    11    2
    13    10    43    1
    14    11    14    1
    15    11    15    1
    16    12    13   ar
    17    12    27   ar
    18    12    43    1
    19    13    14    1
    20    13    30   ar
    21    14    17    2
    22    15    16    1
    23    16    17    1
    24    16    18    1
    25    16    22    1
    26    18    19    1
    27    19    20    1
    28    20    21    1
    29    21    22    1
    30    23    24    1
    31    23    88    1
    32    23    89    1
    33    24    25    1
    34    24    26    1
    35    24    90    1
    36    25    91    1
    37    25    92    1
    38    25    93    1
    39    26    94    1
    40    26    95    1
    41    26    96    1
    42    27    28   ar
    43    28    29   ar
    44    29    30   ar
    45    29    31    1
    46    30    33    1
    47    31    32    1
    48    32    33    1
    49    32    35    1
    50    34    97    1
    51    34    98    1
    52    34    99    1
    53    35    61    1
    54    36    37    1
    55    36    60    1
    56    37    38    1
    57    38    39    1
    58    39    40    1
    59    40    41    1
    60    41    42    1
    61    45   100    1
    62    47   101    1
    63    47   102    1
    64    47   103    1
    65    48   104    1
    66    49   105    1
    67    49   106    1
    68    49   107    1
    69    50   108    1
    70    51    59    1
    71    52   109    1
    72    52   110    1
    73    52   111    1
    74    53    54    1
    75    54    55    2
    76    54    56    1
    77    56   112    1
    78    56   113    1
    79    56   114    1
    80    57   115    1
    81    57   116    1
    82    57   117    1
    83    58   118    1
    84    58   119    1
    85    58   120    1
    86    59   121    1
    87    59   122    1
    88    59   123    1
    89    60    61    2
    90     1    47    1
    91     1    62    1
    92     2    63    1
    93     3    64    1
    94     4    65    1
    95     5     6    1
    96     7     8    2
    97     9    78    1
    98    15    79    1
    99    18    80    1
   100    18    81    1
   101    19    82    1
   102    19    83    1
   103    20    23    1
   104    21    84    1
   105    21    85    1
   106    22    86    1
   107    22    87    1
   108    27    45    1
   109    28    34    1
   110    32    58    1
   111    33    46    2
   112    36    51    1
   113    36    66    1
   114    37    52    1
   115    37    67    1
   116    38    53    1
   117    38    68    1
   118    42    48    1
   119    42    72    1
   120    43    44    2
   121    60    73    1
   122    61    74    1
   123    39    69    1
   124    39    57    1
   125    40    70    1
   126    40    50    1
   127    41    71    1
   128    41    49    1
