@<TRIPOS>MOLECULE
*****
 123 128 0 0 0
SMALL
GASTEIGER

@<TRIPOS>ATOM
     1 C         1.167643   4.522607   -0.763133 C.3        1 UNL1     0.0009
     2 C         0.417041   6.023426   -1.55128 C.2        1 UNL1     -0.0787
     3 C         0.1017   6.795985   -2.734394 C.2        1 UNL1     -0.0649
     4 C         -0.818516   8.213393   -2.836929 C.2        1 UNL1     -0.0542
     5 C         -1.568039   9.051223   -3.699098 C.2        1 UNL1     0.0115
     6 C         -1.926139   9.326053   -5.185555 C.3        1 UNL1     -0.0348
     7 C         -2.594611   10.105944   -3.058238 C.2        1 UNL1     0.2441
     8 O         -2.345846   11.299437   -2.957166 O.2        1 UNL1     -0.2702
     9 N         -3.896855   9.61478   -2.860572 N.am        1 UNL1     -0.2772
     10 C         -4.000815   9.012083   -1.627985 C.2        1 UNL1     0.1049
     11 C         -3.587919   7.759674   -1.555802 C.2        1 UNL1     0.0801
     12 C         -3.498232   9.35809   0.797921 C.ar        1 UNL1     0.0753
     13 C         -2.872586   8.071051   0.77136 C.ar        1 UNL1     0.0305
     14 C         -3.013855   7.175107   -0.374231 C.2        1 UNL1     0.0924
     15 N         -3.272282   6.896307   -2.536363 N.pl3        1 UNL1     -0.3170
     16 C         -3.049167   5.609072   -1.933454 C.3        1 UNL1     0.1275
     17 N         -2.592178   5.923349   -0.529847 N.2        1 UNL1     -0.2557
     18 C         -4.409764   4.932946   -1.794419 C.3        1 UNL1     0.0016
     19 C         -5.068307   4.879177   -3.163733 C.3        1 UNL1     0.0026
     20 N         -4.203819   4.135554   -4.069666 N.3        1 UNL1     -0.3018
     21 C         -2.850906   4.675087   -4.220992 C.3        1 UNL1     0.0026
     22 C         -2.206441   4.715861   -2.834307 C.3        1 UNL1     0.0016
     23 C         -4.864767   3.769555   -5.306532 C.3        1 UNL1     0.0012
     24 C         -5.171009   2.263736   -5.32845 C.3        1 UNL1     -0.0339
     25 C         -4.004727   1.461348   -5.928464 C.3        1 UNL1     -0.0615
     26 C         -5.519694   1.782809   -3.930628 C.3        1 UNL1     -0.0615
     27 C         -3.460121   10.155706   1.939181 C.ar        1 UNL1     0.1347
     28 C         -2.863022   9.758366   3.122247 C.ar        1 UNL1     0.0342
     29 C         -2.211378   8.508437   3.057435 C.ar        1 UNL1     0.1435
     30 C         -2.210225   7.714309   1.910012 C.ar        1 UNL1     0.0774
     31 O         -1.678139   7.933779   4.157631 O.3        1 UNL1     -0.4436
     32 C         -1.553563   6.544767   3.817043 C.3        1 UNL1     0.3143
     33 C         -1.507379   6.510778   2.302803 C.2        1 UNL1     0.2504
     34 C         -2.998635   10.445448   4.452521 C.3        1 UNL1     -0.0327
     35 O         -0.272018   6.10508   4.283489 O.2        1 UNL1     -0.4528
     36 C         -0.674916   2.423993   5.117373 C.3        1 UNL1     0.0854
     37 C         -1.150713   1.239003   4.191664 C.3        1 UNL1     0.0236
     38 C         -0.134747   0.001446   4.102167 C.3        1 UNL1     0.1131
     39 C         1.389354   0.259529   3.766339 C.3        1 UNL1     0.0200
     40 C         1.819551   1.331353   2.562777 C.3        1 UNL1     0.0661
     41 C         1.194218   1.35831   0.986122 C.3        1 UNL1     0.0091
     42 C         0.909424   2.764377   -0.157238 C.3        1 UNL1     0.0661
     43 C         -4.265835   9.777703   -0.400816 C.2        1 UNL1     0.2131
     44 O         -5.14016   10.624906   -0.377611 O.2        1 UNL1     -0.2851
     45 O         -4.054381   11.413912   1.867 O.3        1 UNL1     -0.5056
     46 O         -0.987986   5.687337   1.58306 O.2        1 UNL1     -0.2836
     47 C         2.716147   4.632645   -0.759851 C.3        1 UNL1     -0.0566
     48 O         1.541591   2.09514   -1.319823 O.3        1 UNL1     -0.3909
     49 C         -0.044801   0.492295   0.937688 C.3        1 UNL1     -0.0577
     50 O         1.905634   2.647422   3.070986 O.3        1 UNL1     -0.3910
     51 O         0.643756   2.331739   5.607294 O.3        1 UNL1     -0.3753
     52 C         -1.943353   1.755441   2.946689 C.3        1 UNL1     -0.0564
     53 O         -0.747301   -1.237332   3.516904 O.3        1 UNL1     -0.4608
     54 C         -0.492594   -1.735559   2.265975 C.2        1 UNL1     0.3042
     55 O         -0.687113   -2.88237   1.864944 O.2        1 UNL1     -0.2512
     56 C         0.029849   -0.706932   1.303845 C.3        1 UNL1     0.0332
     57 C         2.182084   0.338811   5.153231 C.3        1 UNL1     -0.0567
     58 C         -2.855996   5.859438   4.291934 C.3        1 UNL1     0.0210
     59 C         1.410725   3.529492   5.493224 C.3        1 UNL1     0.0372
     60 C         -0.818631   3.781657   4.524703 C.2        1 UNL1     -0.0208
     61 C         0.028666   4.81148   4.507487 C.2        1 UNL1     0.0882
     62 H         0.825893   4.887814   0.21285 H        1 UNL1     0.0365
     63 H         0.112496   6.587017   -0.666923 H        1 UNL1     0.0576
     64 H         0.310705   6.417729   -3.737563 H        1 UNL1     0.0615
     65 H         -0.900826   8.54634   -1.798731 H        1 UNL1     0.0622
     66 H         -1.36052   2.395909   5.975979 H        1 UNL1     0.0645
     67 H         -1.995099   0.79032   4.743258 H        1 UNL1     0.0362
     68 H         -0.15061   -0.325926   5.152928 H        1 UNL1     0.0741
     69 H         1.832999   -0.667385   3.428083 H        1 UNL1     0.0359
     70 H         2.871716   1.026973   2.403519 H        1 UNL1     0.0600
     71 H         1.932284   0.710005   0.474345 H        1 UNL1     0.0348
     72 H         1.629674   3.123847   0.591987 H        1 UNL1     0.0602
     73 H         -1.814101   3.907672   4.177704 H        1 UNL1     0.0628
     74 H         1.080018   4.749806   4.790494 H        1 UNL1     0.1022
     75 H         -1.004835   9.548679   -5.776038 H        1 UNL1     0.0279
     76 H         -2.365426   8.499507   -5.739557 H        1 UNL1     0.0279
     77 H         -2.499603   10.254888   -5.320113 H        1 UNL1     0.0279
     78 H         -4.107321   8.910486   -3.564669 H        1 UNL1     0.1553
     79 H         -3.562538   7.006821   -3.490548 H        1 UNL1     0.1484
     80 H         -4.268824   3.928193   -1.378036 H        1 UNL1     0.0317
     81 H         -5.047221   5.477681   -1.089747 H        1 UNL1     0.0317
     82 H         -5.278482   5.88578   -3.55423 H        1 UNL1     0.0428
     83 H         -6.037689   4.395069   -3.041309 H        1 UNL1     0.0428
     84 H         -2.198281   4.054632   -4.843028 H        1 UNL1     0.0428
     85 H         -2.853966   5.650199   -4.727415 H        1 UNL1     0.0428
     86 H         -1.180373   4.987519   -2.99976 H        1 UNL1     0.0317
     87 H         -2.137254   3.701284   -2.42328 H        1 UNL1     0.0317
     88 H         -5.813045   4.319909   -5.36286 H        1 UNL1     0.0429
     89 H         -4.268963   4.065224   -6.179671 H        1 UNL1     0.0429
     90 H         -6.065625   2.087967   -5.937531 H        1 UNL1     0.0308
     91 H         -3.942311   1.60015   -7.011949 H        1 UNL1     0.0233
     92 H         -3.05692   1.758651   -5.47362 H        1 UNL1     0.0233
     93 H         -4.104311   0.383651   -5.751017 H        1 UNL1     0.0233
     94 H         -4.612435   1.699735   -3.322504 H        1 UNL1     0.0233
     95 H         -6.186971   2.49993   -3.444376 H        1 UNL1     0.0233
     96 H         -6.009705   0.805446   -3.955543 H        1 UNL1     0.0233
     97 H         -3.345092   11.469383   4.348812 H        1 UNL1     0.0280
     98 H         -3.727739   9.945996   5.103836 H        1 UNL1     0.0280
     99 H         -2.020765   10.461346   4.96106 H        1 UNL1     0.0280
     100 H         -3.524803   12.116744   2.200461 H        1 UNL1     0.2922
     101 H         3.015394   5.619053   -1.113555 H        1 UNL1     0.0236
     102 H         3.203865   3.83319   -1.316615 H        1 UNL1     0.0236
     103 H         3.13421   4.561667   0.258175 H        1 UNL1     0.0236
     104 H         2.190483   2.718049   -1.701785 H        1 UNL1     0.2098
     105 H         -0.090666   -0.269712   1.711673 H        1 UNL1     0.0234
     106 H         -0.984126   1.04337   0.893968 H        1 UNL1     0.0234
     107 H         0.0   0.0   0.0 H        1 UNL1     0.0234
     108 H         1.164951   3.155491   2.68755 H        1 UNL1     0.2098
     109 H         -1.323642   1.778918   2.039429 H        1 UNL1     0.0234
     110 H         -2.857504   1.184559   2.751333 H        1 UNL1     0.0234
     111 H         -2.298004   2.784669   3.091113 H        1 UNL1     0.0234
     112 H         0.22757   -1.17176   0.333182 H        1 UNL1     0.0342
     113 H         -0.647862   0.139224   1.201039 H        1 UNL1     0.0342
     114 H         0.982905   -0.324523   1.694502 H        1 UNL1     0.0342
     115 H         1.521662   0.618001   5.985748 H        1 UNL1     0.0234
     116 H         2.68549   -0.589486   5.430531 H        1 UNL1     0.0234
     117 H         2.92586   1.153347   5.188864 H        1 UNL1     0.0234
     118 H         -3.756811   6.374463   3.914726 H        1 UNL1     0.0309
     119 H         -2.908311   4.800568   4.019426 H        1 UNL1     0.0309
     120 H         -2.979311   5.899045   5.379744 H        1 UNL1     0.0309
     121 H         2.456053   3.268368   5.655889 H        1 UNL1     0.0524
     122 H         1.33369   3.981703   4.490424 H        1 UNL1     0.0524
     123 H         1.086199   4.255513   6.233272 H        1 UNL1     0.0524
@<TRIPOS>BOND
     1     1     2    1
     2     1    42    1
     3     2     3    2
     4     3     4    1
     5     4     5    2
     6     5     7    1
     7     6    75    1
     8     6    76    1
     9     6    77    1
    10     7     9   am
    11     9    10    1
    12    10    11    2
    13    10    43    1
    14    11    14    1
    15    11    15    1
    16    12    13   ar
    17    12    27   ar
    18    12    43    1
    19    13    14    1
    20    13    30   ar
    21    14    17    2
    22    15    16    1
    23    16    17    1
    24    16    18    1
    25    16    22    1
    26    18    19    1
    27    19    20    1
    28    20    21    1
    29    21    22    1
    30    23    24    1
    31    23    88    1
    32    23    89    1
    33    24    25    1
    34    24    26    1
    35    24    90    1
    36    25    91    1
    37    25    92    1
    38    25    93    1
    39    26    94    1
    40    26    95    1
    41    26    96    1
    42    27    28   ar
    43    28    29   ar
    44    29    30   ar
    45    29    31    1
    46    30    33    1
    47    31    32    1
    48    32    33    1
    49    32    35    1
    50    34    97    1
    51    34    98    1
    52    34    99    1
    53    35    61    1
    54    36    37    1
    55    36    60    1
    56    37    38    1
    57    38    39    1
    58    39    40    1
    59    40    41    1
    60    41    42    1
    61    45   100    1
    62    47   101    1
    63    47   102    1
    64    47   103    1
    65    48   104    1
    66    49   105    1
    67    49   106    1
    68    49   107    1
    69    50   108    1
    70    51    59    1
    71    52   109    1
    72    52   110    1
    73    52   111    1
    74    53    54    1
    75    54    55    2
    76    54    56    1
    77    56   112    1
    78    56   113    1
    79    56   114    1
    80    57   115    1
    81    57   116    1
    82    57   117    1
    83    58   118    1
    84    58   119    1
    85    58   120    1
    86    59   121    1
    87    59   122    1
    88    59   123    1
    89    60    61    2
    90     1    47    1
    91     1    62    1
    92     2    63    1
    93     3    64    1
    94     4    65    1
    95     5     6    1
    96     7     8    2
    97     9    78    1
    98    15    79    1
    99    18    80    1
   100    18    81    1
   101    19    82    1
   102    19    83    1
   103    20    23    1
   104    21    84    1
   105    21    85    1
   106    22    86    1
   107    22    87    1
   108    27    45    1
   109    28    34    1
   110    32    58    1
   111    33    46    2
   112    36    51    1
   113    36    66    1
   114    37    52    1
   115    37    67    1
   116    38    53    1
   117    38    68    1
   118    42    48    1
   119    42    72    1
   120    43    44    2
   121    60    73    1
   122    61    74    1
   123    39    69    1
   124    39    57    1
   125    40    70    1
   126    40    50    1
   127    41    71    1
   128    41    49    1
