@<TRIPOS>MOLECULE
*****
 123 128 0 0 0
SMALL
GASTEIGER

@<TRIPOS>ATOM
     1 C         3.747913   3.625991   1.094767 C.3        1 UNL1     0.0009
     2 C         4.238869   5.370742   0.705098 C.2        1 UNL1     -0.0787
     3 C         5.153046   6.311244   0.092087 C.2        1 UNL1     -0.0649
     4 C         4.983616   7.990441   -0.041881 C.2        1 UNL1     -0.0542
     5 C         5.406551   9.147965   -0.740697 C.2        1 UNL1     0.0115
     6 C         6.442741   9.689915   -1.763401 C.3        1 UNL1     -0.0348
     7 C         4.512815   10.478549   -0.652544 C.2        1 UNL1     0.2441
     8 O         4.80386   11.429663   0.059636 O.2        1 UNL1     -0.2702
     9 N         3.518064   10.586382   -1.639962 N.am        1 UNL1     -0.2772
     10 C         2.358123   9.975681   -1.221747 C.2        1 UNL1     0.1049
     11 C         2.294447   8.667733   -1.39332 C.2        1 UNL1     0.0801
     12 C         0.773523   9.838343   0.70893 C.ar        1 UNL1     0.0753
     13 C         0.903303   8.416167   0.613113 C.ar        1 UNL1     0.0305
     14 C         1.565189   7.783217   -0.525453 C.2        1 UNL1     0.0924
     15 N         3.091203   7.849704   -2.102218 N.pl3        1 UNL1     -0.3170
     16 C         2.488727   6.543078   -2.104701 C.3        1 UNL1     0.1275
     17 N         1.688601   6.493502   -0.826005 N.2        1 UNL1     -0.2557
     18 C         1.471906   6.516173   -3.241827 C.3        1 UNL1     0.0016
     19 C         2.179966   6.883465   -4.536175 C.3        1 UNL1     0.0026
     20 N         3.253005   5.926954   -4.770062 N.3        1 UNL1     -0.3018
     21 C         4.248941   5.836034   -3.700383 C.3        1 UNL1     0.0026
     22 C         3.516477   5.46159   -2.410738 C.3        1 UNL1     0.0016
     23 C         3.793731   6.003194   -6.112614 C.3        1 UNL1     0.0012
     24 C         2.775262   5.473548   -7.134355 C.3        1 UNL1     -0.0339
     25 C         1.969569   6.618224   -7.770463 C.3        1 UNL1     -0.0615
     26 C         3.480574   4.634773   -8.185912 C.3        1 UNL1     -0.0615
     27 C         0.037354   10.428505   1.733568 C.ar        1 UNL1     0.1347
     28 C         -0.64389   9.7015   2.693475 C.ar        1 UNL1     0.0342
     29 C         -0.461588   8.304857   2.607937 C.ar        1 UNL1     0.1435
     30 C         0.302556   7.701325   1.608411 C.ar        1 UNL1     0.0774
     31 O         -1.147205   7.454639   3.402962 O.3        1 UNL1     -0.4436
     32 C         -1.071826   6.188644   2.730319 C.3        1 UNL1     0.3143
     33 C         0.157466   6.280836   1.849095 C.2        1 UNL1     0.2504
     34 C         -1.65135   10.25041   3.66498 C.3        1 UNL1     -0.0327
     35 O         -0.798722   5.193605   3.724583 O.2        1 UNL1     -0.4528
     36 C         -2.403801   1.993657   2.462781 C.3        1 UNL1     0.0854
     37 C         -2.163914   1.22661   1.105719 C.3        1 UNL1     0.0236
     38 C         -1.751865   -0.315064   1.264469 C.3        1 UNL1     0.1131
     39 C         -0.565224   -0.71509   2.230974 C.3        1 UNL1     0.0200
     40 C         0.847875   0.171123   2.245606 C.3        1 UNL1     0.0661
     41 C         1.756036   0.615808   0.883582 C.3        1 UNL1     0.0091
     42 C         2.777951   2.106611   0.569581 C.3        1 UNL1     0.0661
     43 C         1.374398   10.660919   -0.370226 C.2        1 UNL1     0.2131
     44 O         1.020804   11.797666   -0.626185 O.2        1 UNL1     -0.2851
     45 O         -0.001223   11.820517   1.781026 O.3        1 UNL1     -0.5056
     46 O         0.869714   5.385371   1.453244 O.2        1 UNL1     -0.2836
     47 C         4.649064   3.05081   2.220411 C.3        1 UNL1     -0.0566
     48 O         3.937917   1.341937   0.051056 O.3        1 UNL1     -0.3909
     49 C         0.92166   0.383646   -0.356342 C.3        1 UNL1     -0.0577
     50 O         0.744615   1.264384   3.135461 O.3        1 UNL1     -0.3910
     51 O         -2.061334   1.291399   3.636229 O.3        1 UNL1     -0.3753
     52 C         -1.521716   2.151144   0.020469 C.3        1 UNL1     -0.0564
     53 O         -1.872224   -1.102893   -0.007209 O.3        1 UNL1     -0.4608
     54 C         -1.251578   -2.297298   -0.264355 C.2        1 UNL1     0.3042
     55 O         -0.349773   -2.51139   -1.073521 O.2        1 UNL1     -0.2512
     56 C         -1.728873   -3.423162   0.608189 C.3        1 UNL1     0.0332
     57 C         -1.205929   -1.119546   3.639551 C.3        1 UNL1     -0.0567
     58 C         -2.325539   6.096549   1.829624 C.3        1 UNL1     0.0210
     59 C         -2.786279   1.681784   4.801528 C.3        1 UNL1     0.0372
     60 C         -1.750677   3.327859   2.55495 C.2        1 UNL1     -0.0208
     61 C         -1.055556   3.883258   3.54847 C.2        1 UNL1     0.0882
     62 H         2.843931   4.009684   1.582936 H        1 UNL1     0.0365
     63 H         3.46751   5.924553   1.244328 H        1 UNL1     0.0576
     64 H         6.00057   5.976156   -0.510015 H        1 UNL1     0.0615
     65 H         4.171591   8.226555   0.65119 H        1 UNL1     0.0622
     66 H         -3.485795   2.18574   2.483737 H        1 UNL1     0.0645
     67 H         -3.172228   1.140016   0.664852 H        1 UNL1     0.0362
     68 H         -2.663302   -0.700373   1.746487 H        1 UNL1     0.0741
     69 H         -0.220806   -1.706234   1.967499 H        1 UNL1     0.0359
     70 H         1.516108   -0.544019   2.76242 H        1 UNL1     0.0600
     71 H         2.460552   -0.237514   0.834003 H        1 UNL1     0.0348
     72 H         2.659276   2.044695   1.661093 H        1 UNL1     0.0602
     73 H         -2.016589   3.906326   1.705295 H        1 UNL1     0.0628
     74 H         -0.694279   3.344141   4.424866 H        1 UNL1     0.1022
     75 H         7.128511   8.873935   -2.096465 H        1 UNL1     0.0279
     76 H         6.045901   10.061526   -2.705469 H        1 UNL1     0.0279
     77 H         7.152588   10.399754   -1.314015 H        1 UNL1     0.0279
     78 H         3.824793   10.113546   -2.487559 H        1 UNL1     0.1553
     79 H         3.709237   8.164832   -2.827243 H        1 UNL1     0.1484
     80 H         1.02602   5.51584   -3.299136 H        1 UNL1     0.0317
     81 H         0.650696   7.21481   -3.049025 H        1 UNL1     0.0317
     82 H         2.566071   7.913126   -4.511009 H        1 UNL1     0.0428
     83 H         1.436389   6.859954   -5.333414 H        1 UNL1     0.0428
     84 H         4.998196   5.055203   -3.863876 H        1 UNL1     0.0428
     85 H         4.83962   6.758349   -3.612339 H        1 UNL1     0.0428
     86 H         4.285792   5.274247   -1.684759 H        1 UNL1     0.0317
     87 H         3.032081   4.484166   -2.525196 H        1 UNL1     0.0317
     88 H         3.999422   7.057669   -6.338593 H        1 UNL1     0.0429
     89 H         4.747721   5.465809   -6.189385 H        1 UNL1     0.0429
     90 H         2.078239   4.795202   -6.628176 H        1 UNL1     0.0308
     91 H         2.627384   7.347464   -8.252739 H        1 UNL1     0.0233
     92 H         1.262911   6.230014   -8.507711 H        1 UNL1     0.0233
     93 H         1.371525   7.167796   -7.033476 H        1 UNL1     0.0233
     94 H         2.798634   4.416734   -9.014919 H        1 UNL1     0.0233
     95 H         4.336591   5.183231   -8.58889 H        1 UNL1     0.0233
     96 H         3.832891   3.686782   -7.769793 H        1 UNL1     0.0233
     97 H         -2.083337   9.472277   4.287175 H        1 UNL1     0.0280
     98 H         -1.205521   10.976159   4.357642 H        1 UNL1     0.0280
     99 H         -2.467412   10.743081   3.111433 H        1 UNL1     0.0280
     100 H         -0.867471   12.187749   1.800445 H        1 UNL1     0.2922
     101 H         4.324864   2.040983   2.471011 H        1 UNL1     0.0236
     102 H         4.700748   3.693525   3.098608 H        1 UNL1     0.0236
     103 H         5.696276   2.935721   1.894385 H        1 UNL1     0.0236
     104 H         4.55257   1.196665   0.796756 H        1 UNL1     0.2098
     105 H         0.708613   1.282718   -0.929134 H        1 UNL1     0.0234
     106 H         1.291143   -0.403914   -1.012969 H        1 UNL1     0.0234
     107 H         0.0   -0.0   0.0 H        1 UNL1     0.0234
     108 H         0.058236   1.862405   2.781874 H        1 UNL1     0.2098
     109 H         -0.551123   2.555564   0.340008 H        1 UNL1     0.0234
     110 H         -1.411776   1.660457   -0.95261 H        1 UNL1     0.0234
     111 H         -2.152423   3.024732   -0.191663 H        1 UNL1     0.0234
     112 H         -1.189647   -4.341947   0.358358 H        1 UNL1     0.0342
     113 H         -1.632748   -3.189454   1.667426 H        1 UNL1     0.0342
     114 H         -2.794512   -3.590792   0.399672 H        1 UNL1     0.0342
     115 H         -1.910404   -1.957077   3.542365 H        1 UNL1     0.0234
     116 H         -0.47121   -1.394883   4.398778 H        1 UNL1     0.0234
     117 H         -1.859915   -0.339349   4.065622 H        1 UNL1     0.0234
     118 H         -3.213144   5.751866   2.388513 H        1 UNL1     0.0309
     119 H         -2.563043   7.039071   1.326189 H        1 UNL1     0.0309
     120 H         -2.21964   5.34773   1.037057 H        1 UNL1     0.0309
     121 H         -2.55604   2.728609   4.997753 H        1 UNL1     0.0524
     122 H         -3.877233   1.602389   4.661698 H        1 UNL1     0.0524
     123 H         -2.493887   1.068428   5.64911 H        1 UNL1     0.0524
@<TRIPOS>BOND
     1     1     2    1
     2     1    42    1
     3     2     3    2
     4     3     4    1
     5     4     5    2
     6     5     7    1
     7     6    75    1
     8     6    76    1
     9     6    77    1
    10     7     9   am
    11     9    10    1
    12    10    11    2
    13    10    43    1
    14    11    14    1
    15    11    15    1
    16    12    13   ar
    17    12    27   ar
    18    12    43    1
    19    13    14    1
    20    13    30   ar
    21    14    17    2
    22    15    16    1
    23    16    17    1
    24    16    18    1
    25    16    22    1
    26    18    19    1
    27    19    20    1
    28    20    21    1
    29    21    22    1
    30    23    24    1
    31    23    88    1
    32    23    89    1
    33    24    25    1
    34    24    26    1
    35    24    90    1
    36    25    91    1
    37    25    92    1
    38    25    93    1
    39    26    94    1
    40    26    95    1
    41    26    96    1
    42    27    28   ar
    43    28    29   ar
    44    29    30   ar
    45    29    31    1
    46    30    33    1
    47    31    32    1
    48    32    33    1
    49    32    35    1
    50    34    97    1
    51    34    98    1
    52    34    99    1
    53    35    61    1
    54    36    37    1
    55    36    60    1
    56    37    38    1
    57    38    39    1
    58    39    40    1
    59    40    41    1
    60    41    42    1
    61    45   100    1
    62    47   101    1
    63    47   102    1
    64    47   103    1
    65    48   104    1
    66    49   105    1
    67    49   106    1
    68    49   107    1
    69    50   108    1
    70    51    59    1
    71    52   109    1
    72    52   110    1
    73    52   111    1
    74    53    54    1
    75    54    55    2
    76    54    56    1
    77    56   112    1
    78    56   113    1
    79    56   114    1
    80    57   115    1
    81    57   116    1
    82    57   117    1
    83    58   118    1
    84    58   119    1
    85    58   120    1
    86    59   121    1
    87    59   122    1
    88    59   123    1
    89    60    61    2
    90     1    47    1
    91     1    62    1
    92     2    63    1
    93     3    64    1
    94     4    65    1
    95     5     6    1
    96     7     8    2
    97     9    78    1
    98    15    79    1
    99    18    80    1
   100    18    81    1
   101    19    82    1
   102    19    83    1
   103    20    23    1
   104    21    84    1
   105    21    85    1
   106    22    86    1
   107    22    87    1
   108    27    45    1
   109    28    34    1
   110    32    58    1
   111    33    46    2
   112    36    51    1
   113    36    66    1
   114    37    52    1
   115    37    67    1
   116    38    53    1
   117    38    68    1
   118    42    48    1
   119    42    72    1
   120    43    44    2
   121    60    73    1
   122    61    74    1
   123    39    69    1
   124    39    57    1
   125    40    70    1
   126    40    50    1
   127    41    71    1
   128    41    49    1
