@<TRIPOS>MOLECULE
*****
 123 128 0 0 0
SMALL
GASTEIGER

@<TRIPOS>ATOM
     1 C         4.749803   2.629506   -0.724114 C.3        1 UNL1     0.0009
     2 C         6.216627   2.875554   -1.830876 C.2        1 UNL1     -0.0787
     3 C         7.602357   2.611954   -2.156937 C.2        1 UNL1     -0.0649
     4 C         8.456408   3.093678   -3.537116 C.2        1 UNL1     -0.0542
     5 C         9.592167   2.843033   -4.346009 C.2        1 UNL1     0.0115
     6 C         10.925768   2.050583   -4.428801 C.3        1 UNL1     -0.0348
     7 C         9.626736   3.429701   -5.839868 C.2        1 UNL1     0.2441
     8 O         10.265994   4.425875   -6.148919 O.2        1 UNL1     -0.2702
     9 N         9.08788   2.577894   -6.819771 N.am        1 UNL1     -0.2772
     10 C         7.733362   2.785503   -6.944272 C.2        1 UNL1     0.1049
     11 C         6.965804   2.158899   -6.071091 C.2        1 UNL1     0.0801
     12 C         6.019487   4.587207   -7.215993 C.ar        1 UNL1     0.0753
     13 C         5.325752   3.984357   -6.118763 C.ar        1 UNL1     0.0305
     14 C         5.710046   2.674612   -5.597288 C.2        1 UNL1     0.0924
     15 N         7.268142   1.179601   -5.201555 N.pl3        1 UNL1     -0.3170
     16 C         6.039716   0.728023   -4.603809 C.3        1 UNL1     0.1275
     17 N         5.126838   1.928361   -4.663529 N.2        1 UNL1     -0.2557
     18 C         5.435003   -0.311055   -5.54314 C.3        1 UNL1     0.0016
     19 C         6.459828   -1.409332   -5.777895 C.3        1 UNL1     0.0026
     20 N         6.810722   -2.003584   -4.49541 N.3        1 UNL1     -0.3018
     21 C         7.344296   -1.068995   -3.502329 C.3        1 UNL1     0.0026
     22 C         6.296854   0.02309   -3.27848 C.3        1 UNL1     0.0016
     23 C         7.544764   -3.245885   -4.631481 C.3        1 UNL1     0.0012
     24 C         6.628092   -4.357315   -5.166448 C.3        1 UNL1     -0.0339
     25 C         6.766332   -4.515808   -6.689545 C.3        1 UNL1     -0.0615
     26 C         6.912073   -5.660944   -4.440716 C.3        1 UNL1     -0.0615
     27 C         5.573579   5.777628   -7.785362 C.ar        1 UNL1     0.1347
     28 C         4.428553   6.43415   -7.370699 C.ar        1 UNL1     0.0342
     29 C         3.78928   5.848403   -6.257418 C.ar        1 UNL1     0.1435
     30 C         4.244927   4.675754   -5.65368 C.ar        1 UNL1     0.0774
     31 O         2.60203   6.307072   -5.804573 O.3        1 UNL1     -0.4436
     32 C         2.06622   5.223601   -5.030058 C.3        1 UNL1     0.3143
     33 C         3.268218   4.396065   -4.621895 C.2        1 UNL1     0.2504
     34 C         3.75332   7.568659   -8.08976 C.3        1 UNL1     -0.0327
     35 O         1.52051   5.786474   -3.830631 O.2        1 UNL1     -0.4528
     36 C         -1.348011   3.512833   -2.825529 C.3        1 UNL1     0.0854
     37 C         -1.334243   1.964305   -2.52654 C.3        1 UNL1     0.0236
     38 C         -1.921095   1.547412   -1.093519 C.3        1 UNL1     0.1131
     39 C         -1.393011   2.269074   0.211319 C.3        1 UNL1     0.0200
     40 C         0.237237   2.556174   0.416998 C.3        1 UNL1     0.0661
     41 C         1.47883   1.416238   0.225673 C.3        1 UNL1     0.0091
     42 C         3.208026   1.62541   -0.350116 C.3        1 UNL1     0.0661
     43 C         7.17843   3.856144   -7.785779 C.2        1 UNL1     0.2131
     44 O         7.598414   4.035469   -8.914581 O.2        1 UNL1     -0.2851
     45 O         6.331976   6.321709   -8.819889 O.3        1 UNL1     -0.5056
     46 O         3.398279   3.683775   -3.651544 O.2        1 UNL1     -0.2836
     47 C         4.919378   3.445813   0.585416 C.3        1 UNL1     -0.0566
     48 O         3.793231   0.831561   0.757339 O.3        1 UNL1     -0.3909
     49 C         0.921535   0.202038   -0.483294 C.3        1 UNL1     -0.0577
     50 O         0.609745   3.781328   -0.181299 O.3        1 UNL1     -0.3910
     51 O         -1.70529   4.345619   -1.745599 O.3        1 UNL1     -0.3753
     52 C         -0.082755   1.262788   -3.148314 C.3        1 UNL1     -0.0564
     53 O         -2.222536   0.082327   -0.971107 O.3        1 UNL1     -0.4608
     54 C         -2.36368   -0.604757   0.206145 C.2        1 UNL1     0.3042
     55 O         -1.611964   -1.464568   0.663843 O.2        1 UNL1     -0.2512
     56 C         -3.558185   -0.178969   1.011487 C.3        1 UNL1     0.0332
     57 C         -2.407644   3.458534   0.548777 C.3        1 UNL1     -0.0567
     58 C         1.189783   4.389167   -5.992922 C.3        1 UNL1     0.0210
     59 C         -2.28406   5.59539   -2.118378 C.3        1 UNL1     0.0372
     60 C         -0.080816   4.056401   -3.385805 C.2        1 UNL1     -0.0208
     61 C         0.598699   5.160787   -3.073817 C.2        1 UNL1     0.0882
     62 H         4.155757   3.250599   -1.405336 H        1 UNL1     0.0365
     63 H         5.815826   3.601101   -2.541799 H        1 UNL1     0.0576
     64 H         8.20139   1.903712   -1.580171 H        1 UNL1     0.0615
     65 H         7.811262   3.850251   -3.991943 H        1 UNL1     0.0622
     66 H         -2.1032   3.634865   -3.614734 H        1 UNL1     0.0645
     67 H         -2.101196   1.553284   -3.205807 H        1 UNL1     0.0362
     68 H         -2.960893   1.887555   -1.214536 H        1 UNL1     0.0741
     69 H         -1.636245   1.657486   1.069926 H        1 UNL1     0.0359
     70 H         0.258998   2.761479   1.504397 H        1 UNL1     0.0600
     71 H         1.559872   1.042402   1.265209 H        1 UNL1     0.0348
     72 H         2.866755   2.625451   -0.045538 H        1 UNL1     0.0602
     73 H         0.20373   3.479034   -4.230157 H        1 UNL1     0.0628
     74 H         0.407456   5.774232   -2.192711 H        1 UNL1     0.1022
     75 H         11.068179   1.426175   -3.513996 H        1 UNL1     0.0279
     76 H         11.005354   1.316965   -5.227888 H        1 UNL1     0.0279
     77 H         11.810906   2.702079   -4.386555 H        1 UNL1     0.0279
     78 H         9.224958   1.608065   -6.542789 H        1 UNL1     0.1553
     79 H         8.081179   0.596695   -5.279808 H        1 UNL1     0.1484
     80 H         4.517491   -0.708958   -5.093016 H        1 UNL1     0.0317
     81 H         5.144636   0.144654   -6.495856 H        1 UNL1     0.0317
     82 H         7.352794   -1.029059   -6.2955 H        1 UNL1     0.0428
     83 H         6.008773   -2.138541   -6.451583 H        1 UNL1     0.0428
     84 H         7.524575   -1.524557   -2.523669 H        1 UNL1     0.0428
     85 H         8.326374   -0.674865   -3.798136 H        1 UNL1     0.0428
     86 H         6.66127   0.609478   -2.455474 H        1 UNL1     0.0317
     87 H         5.372889   -0.418734   -2.885828 H        1 UNL1     0.0317
     88 H         8.356965   -3.085458   -5.352513 H        1 UNL1     0.0429
     89 H         8.010841   -3.539696   -3.682154 H        1 UNL1     0.0429
     90 H         5.586243   -4.106262   -4.934638 H        1 UNL1     0.0308
     91 H         7.80153   -4.725107   -6.97531 H        1 UNL1     0.0233
     92 H         6.123904   -5.320815   -7.054044 H        1 UNL1     0.0233
     93 H         6.462781   -3.61264   -7.232666 H        1 UNL1     0.0233
     94 H         6.404674   -6.491391   -4.943449 H        1 UNL1     0.0233
     95 H         7.986017   -5.867171   -4.449454 H        1 UNL1     0.0233
     96 H         6.568317   -5.623172   -3.403232 H        1 UNL1     0.0233
     97 H         2.842762   7.88398   -7.589074 H        1 UNL1     0.0280
     98 H         4.390326   8.46108   -8.14512 H        1 UNL1     0.0280
     99 H         3.493413   7.253993   -9.113737 H        1 UNL1     0.0280
     100 H         5.849267   6.498328   -9.608192 H        1 UNL1     0.2922
     101 H         4.033682   3.328042   1.209377 H        1 UNL1     0.0236
     102 H         5.159103   4.493888   0.409195 H        1 UNL1     0.0236
     103 H         5.750091   3.067771   1.204443 H        1 UNL1     0.0236
     104 H         4.054843   1.456233   1.461835 H        1 UNL1     0.2098
     105 H         0.716751   0.353684   -1.540118 H        1 UNL1     0.0234
     106 H         1.494505   -0.713528   -0.337099 H        1 UNL1     0.0234
     107 H         0.0   -0.0   0.0 H        1 UNL1     0.0234
     108 H         0.469415   3.688862   -1.143341 H        1 UNL1     0.2098
     109 H         0.859926   1.675609   -2.76277 H        1 UNL1     0.0234
     110 H         -0.088271   0.175599   -3.01515 H        1 UNL1     0.0234
     111 H         -0.042759   1.397376   -4.237457 H        1 UNL1     0.0234
     112 H         -3.607493   -0.757971   1.938672 H        1 UNL1     0.0342
     113 H         -3.552687   0.890158   1.218321 H        1 UNL1     0.0342
     114 H         -4.462221   -0.400419   0.427669 H        1 UNL1     0.0342
     115 H         -3.429914   3.089782   0.710563 H        1 UNL1     0.0234
     116 H         -2.127666   4.045504   1.425776 H        1 UNL1     0.0234
     117 H         -2.563281   4.155923   -0.292273 H        1 UNL1     0.0234
     118 H         0.177373   4.814851   -6.106176 H        1 UNL1     0.0309
     119 H         1.638699   4.264384   -6.98343 H        1 UNL1     0.0309
     120 H         0.998073   3.378087   -5.617329 H        1 UNL1     0.0309
     121 H         -1.538437   6.146284   -2.69102 H        1 UNL1     0.0524
     122 H         -3.170944   5.470426   -2.761697 H        1 UNL1     0.0524
     123 H         -2.567134   6.157502   -1.232945 H        1 UNL1     0.0524
@<TRIPOS>BOND
     1     1     2    1
     2     1    42    1
     3     2     3    2
     4     3     4    1
     5     4     5    2
     6     5     7    1
     7     6    75    1
     8     6    76    1
     9     6    77    1
    10     7     9   am
    11     9    10    1
    12    10    11    2
    13    10    43    1
    14    11    14    1
    15    11    15    1
    16    12    13   ar
    17    12    27   ar
    18    12    43    1
    19    13    14    1
    20    13    30   ar
    21    14    17    2
    22    15    16    1
    23    16    17    1
    24    16    18    1
    25    16    22    1
    26    18    19    1
    27    19    20    1
    28    20    21    1
    29    21    22    1
    30    23    24    1
    31    23    88    1
    32    23    89    1
    33    24    25    1
    34    24    26    1
    35    24    90    1
    36    25    91    1
    37    25    92    1
    38    25    93    1
    39    26    94    1
    40    26    95    1
    41    26    96    1
    42    27    28   ar
    43    28    29   ar
    44    29    30   ar
    45    29    31    1
    46    30    33    1
    47    31    32    1
    48    32    33    1
    49    32    35    1
    50    34    97    1
    51    34    98    1
    52    34    99    1
    53    35    61    1
    54    36    37    1
    55    36    60    1
    56    37    38    1
    57    38    39    1
    58    39    40    1
    59    40    41    1
    60    41    42    1
    61    45   100    1
    62    47   101    1
    63    47   102    1
    64    47   103    1
    65    48   104    1
    66    49   105    1
    67    49   106    1
    68    49   107    1
    69    50   108    1
    70    51    59    1
    71    52   109    1
    72    52   110    1
    73    52   111    1
    74    53    54    1
    75    54    55    2
    76    54    56    1
    77    56   112    1
    78    56   113    1
    79    56   114    1
    80    57   115    1
    81    57   116    1
    82    57   117    1
    83    58   118    1
    84    58   119    1
    85    58   120    1
    86    59   121    1
    87    59   122    1
    88    59   123    1
    89    60    61    2
    90     1    47    1
    91     1    62    1
    92     2    63    1
    93     3    64    1
    94     4    65    1
    95     5     6    1
    96     7     8    2
    97     9    78    1
    98    15    79    1
    99    18    80    1
   100    18    81    1
   101    19    82    1
   102    19    83    1
   103    20    23    1
   104    21    84    1
   105    21    85    1
   106    22    86    1
   107    22    87    1
   108    27    45    1
   109    28    34    1
   110    32    58    1
   111    33    46    2
   112    36    51    1
   113    36    66    1
   114    37    52    1
   115    37    67    1
   116    38    53    1
   117    38    68    1
   118    42    48    1
   119    42    72    1
   120    43    44    2
   121    60    73    1
   122    61    74    1
   123    39    69    1
   124    39    57    1
   125    40    70    1
   126    40    50    1
   127    41    71    1
   128    41    49    1
