@<TRIPOS>MOLECULE
*****
 123 128 0 0 0
SMALL
GASTEIGER

@<TRIPOS>ATOM
     1 C         5.134241   1.832161   0.542683 C.3        1 UNL1     0.0009
     2 C         6.550851   2.694935   -0.285494 C.2        1 UNL1     -0.0787
     3 C         7.836945   2.64584   -0.948516 C.2        1 UNL1     -0.0649
     4 C         8.682479   3.92009   -1.674957 C.2        1 UNL1     -0.0542
     5 C         9.696929   4.260163   -2.603569 C.2        1 UNL1     0.0115
     6 C         10.84446   3.684119   -3.478021 C.3        1 UNL1     -0.0348
     7 C         9.753398   5.75788   -3.178587 C.2        1 UNL1     0.2441
     8 O         10.5533   6.59364   -2.780861 O.2        1 UNL1     -0.2702
     9 N         9.001324   5.968786   -4.347371 N.am        1 UNL1     -0.2772
     10 C         7.707547   6.313572   -4.030214 C.2        1 UNL1     0.1049
     11 C         6.887834   5.313477   -3.761693 C.2        1 UNL1     0.0801
     12 C         6.361339   7.854141   -2.590873 C.ar        1 UNL1     0.0753
     13 C         5.632142   6.696743   -2.169792 C.ar        1 UNL1     0.0305
     14 C         5.786776   5.408567   -2.841908 C.2        1 UNL1     0.0924
     15 N         7.047324   3.991982   -3.948088 N.pl3        1 UNL1     -0.3170
     16 C         5.793425   3.351846   -3.651073 C.3        1 UNL1     0.1275
     17 N         5.128119   4.268535   -2.65369 N.2        1 UNL1     -0.2557
     18 C         4.943099   3.414089   -4.916289 C.3        1 UNL1     0.0016
     19 C         5.719858   2.774743   -6.056233 C.3        1 UNL1     0.0026
     20 N         6.026514   1.396747   -5.698299 N.3        1 UNL1     -0.3018
     21 C         6.790234   1.231304   -4.459861 C.3        1 UNL1     0.0026
     22 C         5.989467   1.876582   -3.327481 C.3        1 UNL1     0.0016
     23 C         6.496672   0.61315   -6.823275 C.3        1 UNL1     0.0012
     24 C         5.351472   0.352844   -7.814494 C.3        1 UNL1     -0.0339
     25 C         5.700248   0.861501   -9.222925 C.3        1 UNL1     -0.0615
     26 C         4.99767   -1.124142   -7.825279 C.3        1 UNL1     -0.0615
     27 C         6.120372   9.104156   -2.025615 C.ar        1 UNL1     0.1347
     28 C         5.151389   9.327162   -1.063642 C.ar        1 UNL1     0.0342
     29 C         4.479806   8.164535   -0.629548 C.ar        1 UNL1     0.1435
     30 C         4.73584   6.899882   -1.160885 C.ar        1 UNL1     0.0774
     31 O         3.433521   8.231649   0.222385 O.3        1 UNL1     -0.4436
     32 C         2.746346   6.982811   0.051896 C.3        1 UNL1     0.3143
     33 C         3.78809   6.029177   -0.497252 C.2        1 UNL1     0.2504
     34 C         4.665938   10.670984   -0.596117 C.3        1 UNL1     -0.0327
     35 O         2.393849   6.508879   1.357418 O.2        1 UNL1     -0.4528
     36 C         -0.793795   4.497482   0.908752 C.3        1 UNL1     0.0854
     37 C         -1.061719   3.248133   -0.015837 C.3        1 UNL1     0.0236
     38 C         -1.629849   1.954877   0.743415 C.3        1 UNL1     0.1131
     39 C         -0.893733   1.416792   2.036035 C.3        1 UNL1     0.0200
     40 C         0.770694   1.315897   2.080111 C.3        1 UNL1     0.0661
     41 C         1.754298   0.598289   0.898937 C.3        1 UNL1     0.0091
     42 C         3.452995   1.019164   0.34876 C.3        1 UNL1     0.0661
     43 C         7.320092   7.696067   -3.712508 C.2        1 UNL1     0.2131
     44 O         7.697366   8.619626   -4.410678 O.2        1 UNL1     -0.2851
     45 O         6.905333   10.170482   -2.45946 O.3        1 UNL1     -0.5056
     46 O         3.836674   4.824051   -0.391593 O.2        1 UNL1     -0.2836
     47 C         5.537896   1.3836   1.97301 C.3        1 UNL1     -0.0566
     48 O         3.939827   -0.380552   0.402653 O.3        1 UNL1     -0.3909
     49 C         0.930538   0.369044   -0.348605 C.3        1 UNL1     -0.0577
     50 O         1.336094   2.541207   2.500424 O.3        1 UNL1     -0.3910
     51 O         -0.916825   4.275332   2.295455 O.3        1 UNL1     -0.3753
     52 C         -0.009792   3.1405   -1.167711 C.3        1 UNL1     -0.0564
     53 O         -2.20103   0.918912   -0.180086 O.3        1 UNL1     -0.4608
     54 C         -2.369098   -0.407639   0.119822 C.2        1 UNL1     0.3042
     55 O         -1.667458   -1.350427   -0.244444 O.2        1 UNL1     -0.2512
     56 C         -3.522416   -0.673633   1.044926 C.3        1 UNL1     0.0332
     57 C         -1.636622   2.039211   3.30839 C.3        1 UNL1     -0.0567
     58 C         1.668103   7.2211   -1.030758 C.3        1 UNL1     0.0210
     59 C         -1.264451   5.429547   3.058876 C.3        1 UNL1     0.0372
     60 C         0.518144   5.167371   0.696089 C.2        1 UNL1     -0.0208
     61 C         1.416186   5.60907   1.57766 C.2        1 UNL1     0.0882
     62 H         4.631261   2.800905   0.648783 H        1 UNL1     0.0365
     63 H         6.2555   3.738619   -0.159155 H        1 UNL1     0.0576
     64 H         8.321594   1.696716   -1.18807 H        1 UNL1     0.0615
     65 H         8.169445   4.814349   -1.310841 H        1 UNL1     0.0622
     66 H         -1.557693   5.229713   0.611525 H        1 UNL1     0.0645
     67 H         -1.933581   3.54647   -0.62363 H        1 UNL1     0.0362
     68 H         -2.589592   2.35822   1.100808 H        1 UNL1     0.0741
     69 H         -1.198   0.393131   2.20909 H        1 UNL1     0.0359
     70 H         0.897879   0.640532   2.947732 H        1 UNL1     0.0600
     71 H         1.824573   -0.430033   1.304612 H        1 UNL1     0.0348
     72 H         3.330827   1.483636   1.338031 H        1 UNL1     0.0602
     73 H         0.633702   5.389468   -0.33569 H        1 UNL1     0.0628
     74 H         1.401207   5.375613   2.642794 H        1 UNL1     0.1022
     75 H         10.867972   2.569763   -3.409514 H        1 UNL1     0.0279
     76 H         10.768235   3.851357   -4.550071 H        1 UNL1     0.0279
     77 H         11.84228   3.945879   -3.096527 H        1 UNL1     0.0279
     78 H         8.964769   5.108666   -4.890448 H        1 UNL1     0.1553
     79 H         7.725927   3.595384   -4.571899 H        1 UNL1     0.1484
     80 H         3.995058   2.893092   -4.735887 H        1 UNL1     0.0317
     81 H         4.688972   4.449714   -5.166393 H        1 UNL1     0.0317
     82 H         6.636348   3.336377   -6.289741 H        1 UNL1     0.0428
     83 H         5.096109   2.831462   -6.948854 H        1 UNL1     0.0428
     84 H         6.938168   0.185777   -4.172109 H        1 UNL1     0.0428
     85 H         7.810158   1.62946   -4.552287 H        1 UNL1     0.0428
     86 H         6.50983   1.621444   -2.422984 H        1 UNL1     0.0317
     87 H         5.023112   1.369825   -3.215895 H        1 UNL1     0.0317
     88 H         7.279164   1.187449   -7.336287 H        1 UNL1     0.0429
     89 H         6.953974   -0.327591   -6.490628 H        1 UNL1     0.0429
     90 H         4.45114   0.873984   -7.468044 H        1 UNL1     0.0308
     91 H         6.710304   0.559797   -9.515951 H        1 UNL1     0.0233
     92 H         4.985686   0.483775   -9.957998 H        1 UNL1     0.0233
     93 H         5.661959   1.95531   -9.293286 H        1 UNL1     0.0233
     94 H         4.402362   -1.363452   -8.713071 H        1 UNL1     0.0233
     95 H         5.909756   -1.726599   -7.858545 H        1 UNL1     0.0233
     96 H         4.422479   -1.403183   -6.938002 H        1 UNL1     0.0233
     97 H         3.81766   10.586345   0.076558 H        1 UNL1     0.0280
     98 H         5.437383   11.218973   -0.039488 H        1 UNL1     0.0280
     99 H         4.358726   11.275272   -1.465342 H        1 UNL1     0.0280
     100 H         6.421187   10.941349   -2.698186 H        1 UNL1     0.2922
     101 H         4.659771   1.018893   2.505498 H        1 UNL1     0.0236
     102 H         6.063543   2.15677   2.532372 H        1 UNL1     0.0236
     103 H         6.231938   0.526705   1.957895 H        1 UNL1     0.0236
     104 H         4.272574   -0.542487   1.307102 H        1 UNL1     0.2098
     105 H         0.735777   1.267069   -0.929492 H        1 UNL1     0.0234
     106 H         1.296669   -0.427649   -0.996027 H        1 UNL1     0.0234
     107 H         0.0   -0.0   0.0 H        1 UNL1     0.0234
     108 H         1.176185   3.192997   1.79094 H        1 UNL1     0.2098
     109 H         1.017733   3.059577   -0.786456 H        1 UNL1     0.0234
     110 H         -0.210584   2.314204   -1.858118 H        1 UNL1     0.0234
     111 H         -0.019471   4.031739   -1.809229 H        1 UNL1     0.0234
     112 H         -3.587839   -1.744571   1.259768 H        1 UNL1     0.0342
     113 H         -3.452019   -0.094291   1.964301 H        1 UNL1     0.0342
     114 H         -4.448132   -0.375539   0.533697 H        1 UNL1     0.0342
     115 H         -2.720279   1.860742   3.276367 H        1 UNL1     0.0234
     116 H         -1.269856   1.662055   4.265095 H        1 UNL1     0.0234
     117 H         -1.603134   3.141807   3.341566 H        1 UNL1     0.0234
     118 H         0.751036   7.670135   -0.610805 H        1 UNL1     0.0309
     119 H         2.022352   7.840385   -1.860937 H        1 UNL1     0.0309
     120 H         1.309828   6.288252   -1.479689 H        1 UNL1     0.0309
     121 H         -0.891333   5.279632   4.071627 H        1 UNL1     0.0524
     122 H         -0.797206   6.347667   2.665463 H        1 UNL1     0.0524
     123 H         -2.34276   5.560563   3.072244 H        1 UNL1     0.0524
@<TRIPOS>BOND
     1     1     2    1
     2     1    42    1
     3     2     3    2
     4     3     4    1
     5     4     5    2
     6     5     7    1
     7     6    75    1
     8     6    76    1
     9     6    77    1
    10     7     9   am
    11     9    10    1
    12    10    11    2
    13    10    43    1
    14    11    14    1
    15    11    15    1
    16    12    13   ar
    17    12    27   ar
    18    12    43    1
    19    13    14    1
    20    13    30   ar
    21    14    17    2
    22    15    16    1
    23    16    17    1
    24    16    18    1
    25    16    22    1
    26    18    19    1
    27    19    20    1
    28    20    21    1
    29    21    22    1
    30    23    24    1
    31    23    88    1
    32    23    89    1
    33    24    25    1
    34    24    26    1
    35    24    90    1
    36    25    91    1
    37    25    92    1
    38    25    93    1
    39    26    94    1
    40    26    95    1
    41    26    96    1
    42    27    28   ar
    43    28    29   ar
    44    29    30   ar
    45    29    31    1
    46    30    33    1
    47    31    32    1
    48    32    33    1
    49    32    35    1
    50    34    97    1
    51    34    98    1
    52    34    99    1
    53    35    61    1
    54    36    37    1
    55    36    60    1
    56    37    38    1
    57    38    39    1
    58    39    40    1
    59    40    41    1
    60    41    42    1
    61    45   100    1
    62    47   101    1
    63    47   102    1
    64    47   103    1
    65    48   104    1
    66    49   105    1
    67    49   106    1
    68    49   107    1
    69    50   108    1
    70    51    59    1
    71    52   109    1
    72    52   110    1
    73    52   111    1
    74    53    54    1
    75    54    55    2
    76    54    56    1
    77    56   112    1
    78    56   113    1
    79    56   114    1
    80    57   115    1
    81    57   116    1
    82    57   117    1
    83    58   118    1
    84    58   119    1
    85    58   120    1
    86    59   121    1
    87    59   122    1
    88    59   123    1
    89    60    61    2
    90     1    47    1
    91     1    62    1
    92     2    63    1
    93     3    64    1
    94     4    65    1
    95     5     6    1
    96     7     8    2
    97     9    78    1
    98    15    79    1
    99    18    80    1
   100    18    81    1
   101    19    82    1
   102    19    83    1
   103    20    23    1
   104    21    84    1
   105    21    85    1
   106    22    86    1
   107    22    87    1
   108    27    45    1
   109    28    34    1
   110    32    58    1
   111    33    46    2
   112    36    51    1
   113    36    66    1
   114    37    52    1
   115    37    67    1
   116    38    53    1
   117    38    68    1
   118    42    48    1
   119    42    72    1
   120    43    44    2
   121    60    73    1
   122    61    74    1
   123    39    69    1
   124    39    57    1
   125    40    70    1
   126    40    50    1
   127    41    71    1
   128    41    49    1
