@<TRIPOS>MOLECULE
*****
 123 128 0 0 0
SMALL
GASTEIGER

@<TRIPOS>ATOM
     1 C         3.790325   -0.761228   -3.052207 C.3        1 UNL1     0.0009
     2 C         4.477106   0.116311   -4.533859 C.2        1 UNL1     -0.0787
     3 C         4.784683   0.140907   -5.948369 C.2        1 UNL1     -0.0649
     4 C         5.382636   1.435559   -6.860885 C.2        1 UNL1     -0.0542
     5 C         5.52692   1.967271   -8.166083 C.2        1 UNL1     0.0115
     6 C         5.374164   1.645228   -9.678127 C.3        1 UNL1     -0.0348
     7 C         5.853939   3.529622   -8.336695 C.2        1 UNL1     0.2441
     8 O         6.97239   3.950693   -8.598022 O.2        1 UNL1     -0.2702
     9 N         4.724264   4.361644   -8.424595 N.am        1 UNL1     -0.2772
     10 C         4.31596   4.75118   -7.169656 C.2        1 UNL1     0.1049
     11 C         3.553336   3.895238   -6.51392 C.2        1 UNL1     0.0801
     12 C         5.158708   5.708222   -5.017639 C.ar        1 UNL1     0.0753
     13 C         4.480524   4.630742   -4.363642 C.ar        1 UNL1     0.0305
     14 C         3.547359   3.765699   -5.081942 C.2        1 UNL1     0.0924
     15 N         2.930072   2.785945   -6.94698 N.pl3        1 UNL1     -0.3170
     16 C         2.088742   2.310149   -5.88113 C.3        1 UNL1     0.1275
     17 N         2.764813   2.793831   -4.621486 N.2        1 UNL1     -0.2557
     18 C         0.769428   3.07091   -5.972534 C.3        1 UNL1     0.0016
     19 C         0.1904   2.874821   -7.364606 C.3        1 UNL1     0.0026
     20 N         -0.009431   1.450207   -7.5917 N.3        1 UNL1     -0.3018
     21 C         1.193859   0.625488   -7.464028 C.3        1 UNL1     0.0026
     22 C         1.756184   0.834321   -6.056877 C.3        1 UNL1     0.0016
     23 C         -0.826875   1.173996   -8.756233 C.3        1 UNL1     0.0012
     24 C         -1.537719   -0.180258   -8.606398 C.3        1 UNL1     -0.0339
     25 C         -3.035979   0.000563   -8.312157 C.3        1 UNL1     -0.0615
     26 C         -1.309782   -1.028007   -9.845812 C.3        1 UNL1     -0.0615
     27 C         5.952212   6.601818   -4.302127 C.ar        1 UNL1     0.1347
     28 C         6.110801   6.543279   -2.929002 C.ar        1 UNL1     0.0342
     29 C         5.473349   5.445407   -2.312969 C.ar        1 UNL1     0.1435
     30 C         4.704752   4.521344   -3.021902 C.ar        1 UNL1     0.0774
     31 O         5.442553   5.311583   -0.969039 O.3        1 UNL1     -0.4436
     32 C         4.356154   4.40697   -0.719468 C.3        1 UNL1     0.3143
     33 C         4.185748   3.627538   -2.007746 C.2        1 UNL1     0.2504
     34 C         6.735529   7.605201   -2.067529 C.3        1 UNL1     -0.0327
     35 O         4.797379   3.475794   0.276265 O.2        1 UNL1     -0.4528
     36 C         1.687621   2.458567   2.200517 C.3        1 UNL1     0.0854
     37 C         0.351831   1.812704   1.665683 C.3        1 UNL1     0.0236
     38 C         -0.067011   0.438459   2.378261 C.3        1 UNL1     0.1131
     39 C         0.987882   -0.733446   2.505189 C.3        1 UNL1     0.0200
     40 C         1.967177   -1.132096   1.215035 C.3        1 UNL1     0.0661
     41 C         1.44929   -1.415013   -0.375362 C.3        1 UNL1     0.0091
     42 C         2.290092   -1.098312   -1.974785 C.3        1 UNL1     0.0661
     43 C         4.917394   5.896087   -6.469787 C.2        1 UNL1     0.2131
     44 O         5.096097   6.951181   -7.050803 O.2        1 UNL1     -0.2851
     45 O         6.614276   7.595004   -5.02094 O.3        1 UNL1     -0.5056
     46 O         3.742165   2.511348   -2.160085 O.2        1 UNL1     -0.2836
     47 C         4.777973   -1.856991   -2.568643 C.3        1 UNL1     -0.0566
     48 O         1.986686   -2.43949   -2.530035 O.3        1 UNL1     -0.3909
     49 C         0.026321   -0.923341   -0.51997 C.3        1 UNL1     -0.0577
     50 O         3.135762   -0.337056   1.208433 O.3        1 UNL1     -0.3910
     51 O         2.43329   1.673281   3.103143 O.3        1 UNL1     -0.3753
     52 C         0.168913   2.042055   0.129815 C.3        1 UNL1     -0.0564
     53 O         -1.48737   0.032915   2.112859 O.3        1 UNL1     -0.4608
     54 C         -2.148107   0.184041   0.921844 C.2        1 UNL1     0.3042
     55 O         -2.384752   -0.684903   0.083527 O.2        1 UNL1     -0.2512
     56 C         -2.666417   1.575496   0.693984 C.3        1 UNL1     0.0332
     57 C         1.667324   -0.616526   3.948402 C.3        1 UNL1     -0.0567
     58 C         3.100824   5.28205   -0.496062 C.3        1 UNL1     0.0210
     59 C         3.774927   1.405485   2.697974 C.3        1 UNL1     0.0372
     60 C         2.632983   2.91326   1.144722 C.2        1 UNL1     -0.0208
     61 C         3.953438   2.75699   1.041166 C.2        1 UNL1     0.0882
     62 H         3.996064   0.132771   -2.451251 H        1 UNL1     0.0365
     63 H         4.854194   1.031154   -4.071975 H        1 UNL1     0.0576
     64 H         4.488344   -0.673803   -6.612851 H        1 UNL1     0.0615
     65 H         5.719868   2.152015   -6.106929 H        1 UNL1     0.0622
     66 H         1.363418   3.367584   2.726471 H        1 UNL1     0.0645
     67 H         -0.438219   2.495372   2.023936 H        1 UNL1     0.0362
     68 H         -0.222483   0.803547   3.404936 H        1 UNL1     0.0741
     69 H         0.459651   -1.657992   2.696483 H        1 UNL1     0.0359
     70 H         2.314296   -2.131339   1.540738 H        1 UNL1     0.0600
     71 H         1.29719   -2.511528   -0.336936 H        1 UNL1     0.0348
     72 H         3.082002   -1.104004   -1.211789 H        1 UNL1     0.0602
     73 H         2.118112   3.543383   0.462739 H        1 UNL1     0.0628
     74 H         4.545464   2.084615   1.662982 H        1 UNL1     0.1022
     75 H         5.401338   0.541953   -9.848652 H        1 UNL1     0.0279
     76 H         4.43289   1.9309   -10.142309 H        1 UNL1     0.0279
     77 H         6.237325   1.977885   -10.273101 H        1 UNL1     0.0279
     78 H         3.955051   3.850003   -8.851926 H        1 UNL1     0.1553
     79 H         2.743812   2.59326   -7.913992 H        1 UNL1     0.1484
     80 H         0.087377   2.69805   -5.198874 H        1 UNL1     0.0317
     81 H         0.917987   4.137368   -5.771916 H        1 UNL1     0.0317
     82 H         0.836673   3.312371   -8.139715 H        1 UNL1     0.0428
     83 H         -0.748877   3.426978   -7.408552 H        1 UNL1     0.0428
     84 H         1.002285   -0.447755   -7.560262 H        1 UNL1     0.0428
     85 H         1.921909   0.838868   -8.258842 H        1 UNL1     0.0428
     86 H         2.552148   0.120254   -5.954229 H        1 UNL1     0.0317
     87 H         1.023971   0.507525   -5.308435 H        1 UNL1     0.0317
     88 H         -1.5879   1.961465   -8.833873 H        1 UNL1     0.0429
     89 H         -0.232345   1.20928   -9.678222 H        1 UNL1     0.0429
     90 H         -1.083326   -0.734566   -7.77665 H        1 UNL1     0.0308
     91 H         -3.269229   1.039344   -8.059904 H        1 UNL1     0.0233
     92 H         -3.637911   -0.303619   -9.171667 H        1 UNL1     0.0233
     93 H         -3.373327   -0.614904   -7.469404 H        1 UNL1     0.0233
     94 H         -1.140262   -0.38574   -10.716784 H        1 UNL1     0.0233
     95 H         -0.423901   -1.655086   -9.711838 H        1 UNL1     0.0233
     96 H         -2.169577   -1.671298   -10.052928 H        1 UNL1     0.0233
     97 H         6.000816   8.113455   -1.450192 H        1 UNL1     0.0280
     98 H         7.477184   7.190715   -1.372256 H        1 UNL1     0.0280
     99 H         7.228684   8.355917   -2.706528 H        1 UNL1     0.0280
     100 H         7.003715   8.268183   -4.491044 H        1 UNL1     0.2922
     101 H         5.789627   -1.452861   -2.538784 H        1 UNL1     0.0236
     102 H         4.721002   -2.774008   -3.154149 H        1 UNL1     0.0236
     103 H         4.571794   -2.172126   -1.532123 H        1 UNL1     0.0236
     104 H         1.410619   -2.900562   -1.88931 H        1 UNL1     0.2098
     105 H         -0.282278   -0.736584   -1.545494 H        1 UNL1     0.0234
     106 H         -0.719347   -1.529318   -0.005481 H        1 UNL1     0.0234
     107 H         -0.0   0.0   0.0 H        1 UNL1     0.0234
     108 H         3.812404   -0.820138   0.696031 H        1 UNL1     0.2098
     109 H         0.190559   1.100696   -0.436831 H        1 UNL1     0.0234
     110 H         -0.742406   2.597367   -0.1169 H        1 UNL1     0.0234
     111 H         0.97701   2.658206   -0.286457 H        1 UNL1     0.0234
     112 H         -2.292364   1.960468   -0.25955 H        1 UNL1     0.0342
     113 H         -3.753798   1.619047   0.733365 H        1 UNL1     0.0342
     114 H         -2.278238   2.221431   1.493514 H        1 UNL1     0.0342
     115 H         2.516003   -1.305781   4.057305 H        1 UNL1     0.0234
     116 H         2.025393   0.386058   4.190601 H        1 UNL1     0.0234
     117 H         1.013024   -0.952478   4.771184 H        1 UNL1     0.0234
     118 H         2.19549   4.828301   -0.935936 H        1 UNL1     0.0309
     119 H         2.913763   5.503472   0.559486 H        1 UNL1     0.0309
     120 H         3.168721   6.251427   -1.001833 H        1 UNL1     0.0309
     121 H         4.053793   0.43311   3.103038 H        1 UNL1     0.0524
     122 H         3.877667   1.350166   1.601424 H        1 UNL1     0.0524
     123 H         4.4424   2.174545   3.076286 H        1 UNL1     0.0524
@<TRIPOS>BOND
     1     1     2    1
     2     1    42    1
     3     2     3    2
     4     3     4    1
     5     4     5    2
     6     5     7    1
     7     6    75    1
     8     6    76    1
     9     6    77    1
    10     7     9   am
    11     9    10    1
    12    10    11    2
    13    10    43    1
    14    11    14    1
    15    11    15    1
    16    12    13   ar
    17    12    27   ar
    18    12    43    1
    19    13    14    1
    20    13    30   ar
    21    14    17    2
    22    15    16    1
    23    16    17    1
    24    16    18    1
    25    16    22    1
    26    18    19    1
    27    19    20    1
    28    20    21    1
    29    21    22    1
    30    23    24    1
    31    23    88    1
    32    23    89    1
    33    24    25    1
    34    24    26    1
    35    24    90    1
    36    25    91    1
    37    25    92    1
    38    25    93    1
    39    26    94    1
    40    26    95    1
    41    26    96    1
    42    27    28   ar
    43    28    29   ar
    44    29    30   ar
    45    29    31    1
    46    30    33    1
    47    31    32    1
    48    32    33    1
    49    32    35    1
    50    34    97    1
    51    34    98    1
    52    34    99    1
    53    35    61    1
    54    36    37    1
    55    36    60    1
    56    37    38    1
    57    38    39    1
    58    39    40    1
    59    40    41    1
    60    41    42    1
    61    45   100    1
    62    47   101    1
    63    47   102    1
    64    47   103    1
    65    48   104    1
    66    49   105    1
    67    49   106    1
    68    49   107    1
    69    50   108    1
    70    51    59    1
    71    52   109    1
    72    52   110    1
    73    52   111    1
    74    53    54    1
    75    54    55    2
    76    54    56    1
    77    56   112    1
    78    56   113    1
    79    56   114    1
    80    57   115    1
    81    57   116    1
    82    57   117    1
    83    58   118    1
    84    58   119    1
    85    58   120    1
    86    59   121    1
    87    59   122    1
    88    59   123    1
    89    60    61    2
    90     1    47    1
    91     1    62    1
    92     2    63    1
    93     3    64    1
    94     4    65    1
    95     5     6    1
    96     7     8    2
    97     9    78    1
    98    15    79    1
    99    18    80    1
   100    18    81    1
   101    19    82    1
   102    19    83    1
   103    20    23    1
   104    21    84    1
   105    21    85    1
   106    22    86    1
   107    22    87    1
   108    27    45    1
   109    28    34    1
   110    32    58    1
   111    33    46    2
   112    36    51    1
   113    36    66    1
   114    37    52    1
   115    37    67    1
   116    38    53    1
   117    38    68    1
   118    42    48    1
   119    42    72    1
   120    43    44    2
   121    60    73    1
   122    61    74    1
   123    39    69    1
   124    39    57    1
   125    40    70    1
   126    40    50    1
   127    41    71    1
   128    41    49    1
