@<TRIPOS>MOLECULE
*****
 123 128 0 0 0
SMALL
GASTEIGER

@<TRIPOS>ATOM
     1 C         -4.17065   1.953312   1.445445 C.3        1 UNL1     0.0009
     2 C         -5.547018   2.829617   0.565252 C.2        1 UNL1     -0.0787
     3 C         -6.329184   4.025678   0.333516 C.2        1 UNL1     -0.0649
     4 C         -7.537728   4.270135   -0.826665 C.2        1 UNL1     -0.0542
     5 C         -8.272339   5.240985   -1.551147 C.2        1 UNL1     0.0115
     6 C         -8.582967   6.759286   -1.658822 C.3        1 UNL1     -0.0348
     7 C         -9.048469   4.793355   -2.883153 C.2        1 UNL1     0.2441
     8 O         -10.256298   4.602249   -2.917104 O.2        1 UNL1     -0.2702
     9 N         -8.293336   4.888746   -4.065027 N.am        1 UNL1     -0.2772
     10 C         -7.589525   3.726158   -4.280342 C.2        1 UNL1     0.1049
     11 C         -6.443106   3.611737   -3.6347 C.2        1 UNL1     0.0801
     12 C         -7.842356   1.2385   -4.35083 C.ar        1 UNL1     0.0753
     13 C         -6.712176   1.177327   -3.474725 C.ar        1 UNL1     0.0305
     14 C         -5.896396   2.356793   -3.194699 C.2        1 UNL1     0.0924
     15 N         -5.737825   4.533382   -2.956706 N.pl3        1 UNL1     -0.3170
     16 C         -4.478861   3.941063   -2.590072 C.3        1 UNL1     0.1275
     17 N         -4.769795   2.463158   -2.495854 N.2        1 UNL1     -0.2557
     18 C         -3.535875   4.112201   -3.777166 C.3        1 UNL1     0.0016
     19 C         -3.456516   5.589871   -4.126139 C.3        1 UNL1     0.0026
     20 N         -2.97217   6.319903   -2.962742 N.3        1 UNL1     -0.3018
     21 C         -3.781132   6.167002   -1.751721 C.3        1 UNL1     0.0026
     22 C         -3.843654   4.675733   -1.416905 C.3        1 UNL1     0.0016
     23 C         -2.577199   7.679186   -3.274176 C.3        1 UNL1     0.0012
     24 C         -3.637083   8.675192   -2.777815 C.3        1 UNL1     -0.0339
     25 C         -4.86949   7.949901   -2.212852 C.3        1 UNL1     -0.0615
     26 C         -3.02684   9.619027   -1.756268 C.3        1 UNL1     -0.0615
     27 C         -8.541803   0.088137   -4.707981 C.ar        1 UNL1     0.1347
     28 C         -8.182471   -1.179411   -4.285781 C.ar        1 UNL1     0.0342
     29 C         -7.096663   -1.209884   -3.385084 C.ar        1 UNL1     0.1435
     30 C         -6.408941   -0.061815   -2.989865 C.ar        1 UNL1     0.0774
     31 O         -6.557699   -2.377103   -2.970207 O.3        1 UNL1     -0.4436
     32 C         -5.251807   -2.023262   -2.490296 C.3        1 UNL1     0.3143
     33 C         -5.343679   -0.551795   -2.140216 C.2        1 UNL1     0.2504
     34 C         -8.72477   -2.474488   -4.823171 C.3        1 UNL1     -0.0327
     35 O         -5.042703   -2.731925   -1.262564 O.2        1 UNL1     -0.4528
     36 C         -1.302564   -3.338283   -1.03501 C.3        1 UNL1     0.0854
     37 C         -0.120762   -2.29408   -1.057535 C.3        1 UNL1     0.0236
     38 C         0.87827   -2.376933   0.194189 C.3        1 UNL1     0.1131
     39 C         0.295917   -2.375741   1.664949 C.3        1 UNL1     0.0200
     40 C         -0.929126   -1.325521   2.087733 C.3        1 UNL1     0.0661
     41 C         -0.951122   0.345131   1.794394 C.3        1 UNL1     0.0091
     42 C         -2.355188   1.474529   1.450213 C.3        1 UNL1     0.0661
     43 C         -8.190572   2.556221   -4.937871 C.2        1 UNL1     0.2131
     44 O         -8.841666   2.687487   -5.95845 O.2        1 UNL1     -0.2851
     45 O         -9.657643   0.240238   -5.528472 O.3        1 UNL1     -0.5056
     46 O         -4.698161   0.071032   -1.327046 O.2        1 UNL1     -0.2836
     47 C         -4.587319   1.622983   2.903955 C.3        1 UNL1     -0.0566
     48 O         -1.916717   2.501406   2.426114 O.3        1 UNL1     -0.3909
     49 C         0.138718   0.680526   0.800788 C.3        1 UNL1     -0.0577
     50 O         -2.193036   -1.884718   1.791837 O.3        1 UNL1     -0.3910
     51 O         -1.43847   -4.089395   0.150229 O.3        1 UNL1     -0.3753
     52 C         -0.562097   -0.929214   -1.679881 C.3        1 UNL1     -0.0564
     53 O         2.165987   -1.635089   -0.015045 O.3        1 UNL1     -0.4608
     54 C         3.418965   -2.131558   0.232935 C.2        1 UNL1     0.3042
     55 O         4.142993   -1.884485   1.196563 O.2        1 UNL1     -0.2512
     56 C         3.885559   -3.125878   -0.791921 C.3        1 UNL1     0.0332
     57 C         0.166167   -3.899479   2.133523 C.3        1 UNL1     -0.0567
     58 C         -4.285759   -2.192214   -3.686012 C.3        1 UNL1     0.0210
     59 C         -0.945534   -5.426125   0.072571 C.3        1 UNL1     0.0372
     60 C         -2.645408   -2.774935   -1.342533 C.2        1 UNL1     -0.0208
     61 C         -3.82201   -2.969896   -0.745588 C.2        1 UNL1     0.0882
     62 H         -4.384441   1.058444   0.848607 H        1 UNL1     0.0365
     63 H         -5.969043   2.00982   -0.01981 H        1 UNL1     0.0576
     64 H         -6.0782   4.975281   0.811395 H        1 UNL1     0.0615
     65 H         -7.767089   3.261368   -1.180593 H        1 UNL1     0.0622
     66 H         -1.072442   -4.033316   -1.854777 H        1 UNL1     0.0645
     67 H         0.528458   -2.641665   -1.879884 H        1 UNL1     0.0362
     68 H         1.281617   -3.389523   0.040906 H        1 UNL1     0.0741
     69 H         1.086834   -2.106444   2.352217 H        1 UNL1     0.0359
     70 H         -0.854228   -1.379315   3.190709 H        1 UNL1     0.0600
     71 H         -0.504469   0.713107   2.738879 H        1 UNL1     0.0348
     72 H         -2.792938   0.579685   1.915985 H        1 UNL1     0.0602
     73 H         -2.596132   -2.232152   -2.25369 H        1 UNL1     0.0628
     74 H         -3.950201   -3.463982   0.218095 H        1 UNL1     0.1022
     75 H         -7.969232   7.337853   -0.926959 H        1 UNL1     0.0279
     76 H         -8.335739   7.239281   -2.603043 H        1 UNL1     0.0279
     77 H         -9.602933   7.008936   -1.331642 H        1 UNL1     0.0279
     78 H         -7.617164   5.644681   -3.978822 H        1 UNL1     0.1553
     79 H         -5.860778   5.52285   -3.069708 H        1 UNL1     0.1484
     80 H         -2.5507   3.709792   -3.51209 H        1 UNL1     0.0317
     81 H         -3.886703   3.538187   -4.641503 H        1 UNL1     0.0317
     82 H         -4.427683   5.981377   -4.462992 H        1 UNL1     0.0428
     83 H         -2.780546   5.689045   -4.97601 H        1 UNL1     0.0428
     84 H         -3.353046   6.659644   -0.873167 H        1 UNL1     0.0428
     85 H         -4.771792   6.629619   -1.860779 H        1 UNL1     0.0428
     86 H         -4.326713   4.613961   -0.459395 H        1 UNL1     0.0317
     87 H         -2.834954   4.293878   -1.217388 H        1 UNL1     0.0317
     88 H         -1.632033   7.88745   -2.755927 H        1 UNL1     0.0429
     89 H         -2.389177   7.803617   -4.348391 H        1 UNL1     0.0429
     90 H         -3.956893   9.30646   -3.615333 H        1 UNL1     0.0308
     91 H         -5.775636   8.216231   -2.765184 H        1 UNL1     0.0233
     92 H         -4.731515   6.866798   -2.251048 H        1 UNL1     0.0233
     93 H         -5.053965   8.197737   -1.16053 H        1 UNL1     0.0233
     94 H         -1.9336   9.582224   -1.813782 H        1 UNL1     0.0233
     95 H         -3.340865   10.646142   -1.962145 H        1 UNL1     0.0233
     96 H         -3.328443   9.354921   -0.738794 H        1 UNL1     0.0233
     97 H         -9.176486   -2.351732   -5.803025 H        1 UNL1     0.0280
     98 H         -7.939998   -3.232182   -4.946817 H        1 UNL1     0.0280
     99 H         -9.491907   -2.866915   -4.135714 H        1 UNL1     0.0280
     100 H         -10.075274   1.0815   -5.469437 H        1 UNL1     0.2922
     101 H         -4.385851   2.479576   3.546851 H        1 UNL1     0.0236
     102 H         -4.130258   0.709934   3.283981 H        1 UNL1     0.0236
     103 H         -5.67307   1.453139   2.996104 H        1 UNL1     0.0236
     104 H         -1.333461   2.061488   3.075156 H        1 UNL1     0.2098
     105 H         0.082276   1.687557   0.395185 H        1 UNL1     0.0234
     106 H         1.15057   0.468425   1.145893 H        1 UNL1     0.0234
     107 H         0.0   0.0   0.0 H        1 UNL1     0.0234
     108 H         -2.772757   -1.154229   1.501874 H        1 UNL1     0.2098
     109 H         0.139834   -0.117564   -1.442754 H        1 UNL1     0.0234
     110 H         -0.712179   -0.978883   -2.763741 H        1 UNL1     0.0234
     111 H         -1.535924   -0.603103   -1.290962 H        1 UNL1     0.0234
     112 H         4.648027   -3.778974   -0.356658 H        1 UNL1     0.0342
     113 H         3.061739   -3.707206   -1.203285 H        1 UNL1     0.0342
     114 H         4.348987   -2.572779   -1.620463 H        1 UNL1     0.0342
     115 H         1.034389   -4.497346   1.823794 H        1 UNL1     0.0234
     116 H         0.049659   -4.02392   3.211943 H        1 UNL1     0.0234
     117 H         -0.655493   -4.443924   1.63714 H        1 UNL1     0.0234
     118 H         -3.727788   -1.264421   -3.902521 H        1 UNL1     0.0309
     119 H         -3.575498   -3.014215   -3.551679 H        1 UNL1     0.0309
     120 H         -4.811225   -2.395969   -4.625414 H        1 UNL1     0.0309
     121 H         -0.304516   -5.591935   0.937995 H        1 UNL1     0.0524
     122 H         -1.755381   -6.173582   0.111234 H        1 UNL1     0.0524
     123 H         -0.380458   -5.565643   -0.844663 H        1 UNL1     0.0524
@<TRIPOS>BOND
     1     1     2    1
     2     1    42    1
     3     2     3    2
     4     3     4    1
     5     4     5    2
     6     5     7    1
     7     6    75    1
     8     6    76    1
     9     6    77    1
    10     7     9   am
    11     9    10    1
    12    10    11    2
    13    10    43    1
    14    11    14    1
    15    11    15    1
    16    12    13   ar
    17    12    27   ar
    18    12    43    1
    19    13    14    1
    20    13    30   ar
    21    14    17    2
    22    15    16    1
    23    16    17    1
    24    16    18    1
    25    16    22    1
    26    18    19    1
    27    19    20    1
    28    20    21    1
    29    21    22    1
    30    23    24    1
    31    23    88    1
    32    23    89    1
    33    24    25    1
    34    24    26    1
    35    24    90    1
    36    25    91    1
    37    25    92    1
    38    25    93    1
    39    26    94    1
    40    26    95    1
    41    26    96    1
    42    27    28   ar
    43    28    29   ar
    44    29    30   ar
    45    29    31    1
    46    30    33    1
    47    31    32    1
    48    32    33    1
    49    32    35    1
    50    34    97    1
    51    34    98    1
    52    34    99    1
    53    35    61    1
    54    36    37    1
    55    36    60    1
    56    37    38    1
    57    38    39    1
    58    39    40    1
    59    40    41    1
    60    41    42    1
    61    45   100    1
    62    47   101    1
    63    47   102    1
    64    47   103    1
    65    48   104    1
    66    49   105    1
    67    49   106    1
    68    49   107    1
    69    50   108    1
    70    51    59    1
    71    52   109    1
    72    52   110    1
    73    52   111    1
    74    53    54    1
    75    54    55    2
    76    54    56    1
    77    56   112    1
    78    56   113    1
    79    56   114    1
    80    57   115    1
    81    57   116    1
    82    57   117    1
    83    58   118    1
    84    58   119    1
    85    58   120    1
    86    59   121    1
    87    59   122    1
    88    59   123    1
    89    60    61    2
    90     1    47    1
    91     1    62    1
    92     2    63    1
    93     3    64    1
    94     4    65    1
    95     5     6    1
    96     7     8    2
    97     9    78    1
    98    15    79    1
    99    18    80    1
   100    18    81    1
   101    19    82    1
   102    19    83    1
   103    20    23    1
   104    21    84    1
   105    21    85    1
   106    22    86    1
   107    22    87    1
   108    27    45    1
   109    28    34    1
   110    32    58    1
   111    33    46    2
   112    36    51    1
   113    36    66    1
   114    37    52    1
   115    37    67    1
   116    38    53    1
   117    38    68    1
   118    42    48    1
   119    42    72    1
   120    43    44    2
   121    60    73    1
   122    61    74    1
   123    39    69    1
   124    39    57    1
   125    40    70    1
   126    40    50    1
   127    41    71    1
   128    41    49    1
