@<TRIPOS>MOLECULE
*****
 123 128 0 0 0
SMALL
GASTEIGER

@<TRIPOS>ATOM
     1 C         2.66011   4.463314   -1.736202 C.3        1 UNL1     0.0009
     2 C         4.264988   5.144708   -2.366365 C.2        1 UNL1     -0.0787
     3 C         5.492229   5.879245   -2.141905 C.2        1 UNL1     -0.0649
     4 C         6.783887   6.099774   -3.213979 C.2        1 UNL1     -0.0542
     5 C         8.156594   6.431979   -3.325298 C.2        1 UNL1     0.0115
     6 C         9.383833   6.980652   -2.546732 C.3        1 UNL1     -0.0348
     7 C         8.941565   6.049946   -4.672466 C.2        1 UNL1     0.2441
     8 O         9.202275   6.866694   -5.545093 O.2        1 UNL1     -0.2702
     9 N         9.537335   4.776695   -4.666079 N.am        1 UNL1     -0.2772
     10 C         8.645878   3.827169   -5.109958 C.2        1 UNL1     0.1049
     11 C         7.79605   3.361993   -4.212391 C.2        1 UNL1     0.0801
     12 C         7.029223   3.332359   -6.953575 C.ar        1 UNL1     0.0753
     13 C         6.073075   3.037631   -5.930088 C.ar        1 UNL1     0.0305
     14 C         6.465973   2.916253   -4.527965 C.2        1 UNL1     0.0924
     15 N         7.786124   3.506055   -2.876099 N.pl3        1 UNL1     -0.3170
     16 C         6.747178   2.660592   -2.350707 C.3        1 UNL1     0.1275
     17 N         5.742395   2.555543   -3.471911 N.2        1 UNL1     -0.2557
     18 C         7.341362   1.26548   -2.182453 C.3        1 UNL1     0.0016
     19 C         8.575467   1.365659   -1.300104 C.3        1 UNL1     0.0026
     20 N         8.186718   1.928165   -0.014224 N.3        1 UNL1     -0.3018
     21 C         7.548531   3.244565   -0.078863 C.3        1 UNL1     0.0026
     22 C         6.308849   3.119643   -0.966262 C.3        1 UNL1     0.0016
     23 C         9.216476   1.789905   0.996284 C.3        1 UNL1     0.0012
     24 C         9.366174   0.31884   1.41499 C.3        1 UNL1     -0.0339
     25 C         9.731669   0.192093   2.903078 C.3        1 UNL1     -0.0615
     26 C         8.098134   -0.448601   1.083493 C.3        1 UNL1     -0.0615
     27 C         6.670525   3.327258   -8.299468 C.ar        1 UNL1     0.1347
     28 C         5.400895   3.004704   -8.744495 C.ar        1 UNL1     0.0342
     29 C         4.464052   2.765873   -7.716658 C.ar        1 UNL1     0.1435
     30 C         4.800219   2.802934   -6.362835 C.ar        1 UNL1     0.0774
     31 O         3.213922   2.332458   -7.9893 O.3        1 UNL1     -0.4436
     32 C         2.749297   1.765714   -6.754878 C.3        1 UNL1     0.3143
     33 C         3.581205   2.429587   -5.676261 C.2        1 UNL1     0.2504
     34 C         5.008704   2.733867   -10.170304 C.3        1 UNL1     -0.0327
     35 O         1.397618   2.202885   -6.567539 O.2        1 UNL1     -0.4528
     36 C         -0.326688   -0.555658   -4.611703 C.3        1 UNL1     0.0854
     37 C         0.053763   -1.170646   -3.210072 C.3        1 UNL1     0.0236
     38 C         -1.119259   -1.138436   -2.117036 C.3        1 UNL1     0.1131
     39 C         -1.886995   0.214273   -1.828889 C.3        1 UNL1     0.0200
     40 C         -1.04714   1.648277   -1.684963 C.3        1 UNL1     0.0661
     41 C         0.317344   1.907216   -0.710928 C.3        1 UNL1     0.0091
     42 C         1.762242   3.010695   -0.955886 C.3        1 UNL1     0.0661
     43 C         8.436789   3.555937   -6.540016 C.2        1 UNL1     0.2131
     44 O         9.387354   3.425934   -7.289858 O.2        1 UNL1     -0.2851
     45 O         7.65   3.669677   -9.229423 O.3        1 UNL1     -0.5056
     46 O         3.293547   2.626113   -4.516742 O.2        1 UNL1     -0.2836
     47 C         1.617279   5.601873   -1.574432 C.3        1 UNL1     -0.0566
     48 O         1.716154   3.56491   0.418828 O.3        1 UNL1     -0.3909
     49 C         0.856395   0.567924   -0.260135 C.3        1 UNL1     -0.0577
     50 O         -0.857736   2.247378   -2.95103 O.3        1 UNL1     -0.3910
     51 O         -1.574264   0.097297   -4.679784 O.3        1 UNL1     -0.3753
     52 C         1.545784   -0.88883   -2.836709 C.3        1 UNL1     -0.0564
     53 O         -0.862599   -2.025918   -0.934315 O.3        1 UNL1     -0.4608
     54 C         -1.199265   -1.739282   0.362768 C.2        1 UNL1     0.3042
     55 O         -0.451551   -1.354233   1.260821 O.2        1 UNL1     -0.2512
     56 C         -2.668075   -1.875411   0.646987 C.3        1 UNL1     0.0332
     57 C         -3.214888   0.214519   -2.720447 C.3        1 UNL1     -0.0567
     58 C         3.104041   0.261276   -6.80338 C.3        1 UNL1     0.0210
     59 C         -2.578678   -0.603965   -5.411391 C.3        1 UNL1     0.0372
     60 C         0.679754   0.381159   -5.181447 C.2        1 UNL1     -0.0208
     61 C         0.521411   1.570672   -5.763452 C.2        1 UNL1     0.0882
     62 H         2.48487   4.016203   -2.72215 H        1 UNL1     0.0365
     63 H         4.198887   4.877115   -3.423008 H        1 UNL1     0.0576
     64 H         5.770976   6.238244   -1.148664 H        1 UNL1     0.0615
     65 H         6.377179   5.787703   -4.179735 H        1 UNL1     0.0622
     66 H         -0.355334   -1.417822   -5.292805 H        1 UNL1     0.0645
     67 H         0.140564   -2.253345   -3.407018 H        1 UNL1     0.0362
     68 H         -1.853121   -1.789955   -2.615524 H        1 UNL1     0.0741
     69 H         -2.385617   0.134457   -0.872116 H        1 UNL1     0.0359
     70 H         -1.818934   2.273027   -1.196002 H        1 UNL1     0.0600
     71 H         -0.171903   2.267173   0.215369 H        1 UNL1     0.0348
     72 H         0.971044   3.396181   -1.61522 H        1 UNL1     0.0602
     73 H         1.631629   -0.089123   -5.185602 H        1 UNL1     0.0628
     74 H         -0.405926   2.144384   -5.751678 H        1 UNL1     0.1022
     75 H         9.105428   7.895918   -1.9707 H        1 UNL1     0.0279
     76 H         9.797124   6.334951   -1.775157 H        1 UNL1     0.0279
     77 H         10.168159   7.372615   -3.210735 H        1 UNL1     0.0279
     78 H         9.80199   4.527662   -3.715281 H        1 UNL1     0.1553
     79 H         8.589008   3.778325   -2.339275 H        1 UNL1     0.1484
     80 H         6.585165   0.605783   -1.740037 H        1 UNL1     0.0317
     81 H         7.605268   0.83286   -3.153455 H        1 UNL1     0.0317
     82 H         9.365992   1.96715   -1.772535 H        1 UNL1     0.0428
     83 H         8.984262   0.360259   -1.194707 H        1 UNL1     0.0428
     84 H         7.194714   3.608582   0.890733 H        1 UNL1     0.0428
     85 H         8.247954   4.021785   -0.416583 H        1 UNL1     0.0428
     86 H         5.797329   4.060624   -0.883252 H        1 UNL1     0.0317
     87 H         5.602037   2.406706   -0.524409 H        1 UNL1     0.0317
     88 H         10.16702   2.128654   0.563836 H        1 UNL1     0.0429
     89 H         9.011868   2.429818   1.864282 H        1 UNL1     0.0429
     90 H         10.161359   -0.145002   0.819386 H        1 UNL1     0.0308
     91 H         9.909642   -0.850943   3.181473 H        1 UNL1     0.0233
     92 H         10.621984   0.781781   3.133763 H        1 UNL1     0.0233
     93 H         8.93816   0.566092   3.561335 H        1 UNL1     0.0233
     94 H         8.190054   -1.489655   1.411509 H        1 UNL1     0.0233
     95 H         7.245612   -0.004786   1.605217 H        1 UNL1     0.0233
     96 H         7.896853   -0.441455   0.008596 H        1 UNL1     0.0233
     97 H         4.585057   1.741788   -10.294941 H        1 UNL1     0.0280
     98 H         4.243654   3.434626   -10.529317 H        1 UNL1     0.0280
     99 H         5.896341   2.814552   -10.818907 H        1 UNL1     0.0280
     100 H         8.119368   4.460697   -9.030419 H        1 UNL1     0.2922
     101 H         2.059484   6.429449   -1.020151 H        1 UNL1     0.0236
     102 H         0.68115   5.265738   -1.129845 H        1 UNL1     0.0236
     103 H         1.326826   6.038355   -2.544645 H        1 UNL1     0.0236
     104 H         1.039726   3.064671   0.915996 H        1 UNL1     0.2098
     105 H         1.398147   0.020548   -1.0274 H        1 UNL1     0.0234
     106 H         1.435295   0.597357   0.662869 H        1 UNL1     0.0234
     107 H         0.0   0.0   0.0 H        1 UNL1     0.0234
     108 H         -0.180465   2.942874   -2.844462 H        1 UNL1     0.2098
     109 H         2.245847   -1.325292   -3.562743 H        1 UNL1     0.0234
     110 H         1.764328   0.177232   -2.712234 H        1 UNL1     0.0234
     111 H         1.810446   -1.329882   -1.866465 H        1 UNL1     0.0234
     112 H         -3.051667   -2.793607   0.191885 H        1 UNL1     0.0342
     113 H         -2.882863   -1.849044   1.714234 H        1 UNL1     0.0342
     114 H         -3.187679   -1.026425   0.181799 H        1 UNL1     0.0342
     115 H         -4.04688   0.722731   -2.213794 H        1 UNL1     0.0234
     116 H         -3.092126   0.681727   -3.699577 H        1 UNL1     0.0234
     117 H         -3.641675   -0.791531   -2.874257 H        1 UNL1     0.0234
     118 H         2.205858   -0.373598   -6.899336 H        1 UNL1     0.0309
     119 H         3.80668   0.011161   -7.604594 H        1 UNL1     0.0309
     120 H         3.565023   -0.092064   -5.874535 H        1 UNL1     0.0309
     121 H         -3.307234   0.129034   -5.756753 H        1 UNL1     0.0524
     122 H         -2.170557   -1.111177   -6.301454 H        1 UNL1     0.0524
     123 H         -3.061012   -1.341068   -4.775681 H        1 UNL1     0.0524
@<TRIPOS>BOND
     1     1     2    1
     2     1    42    1
     3     2     3    2
     4     3     4    1
     5     4     5    2
     6     5     7    1
     7     6    75    1
     8     6    76    1
     9     6    77    1
    10     7     9   am
    11     9    10    1
    12    10    11    2
    13    10    43    1
    14    11    14    1
    15    11    15    1
    16    12    13   ar
    17    12    27   ar
    18    12    43    1
    19    13    14    1
    20    13    30   ar
    21    14    17    2
    22    15    16    1
    23    16    17    1
    24    16    18    1
    25    16    22    1
    26    18    19    1
    27    19    20    1
    28    20    21    1
    29    21    22    1
    30    23    24    1
    31    23    88    1
    32    23    89    1
    33    24    25    1
    34    24    26    1
    35    24    90    1
    36    25    91    1
    37    25    92    1
    38    25    93    1
    39    26    94    1
    40    26    95    1
    41    26    96    1
    42    27    28   ar
    43    28    29   ar
    44    29    30   ar
    45    29    31    1
    46    30    33    1
    47    31    32    1
    48    32    33    1
    49    32    35    1
    50    34    97    1
    51    34    98    1
    52    34    99    1
    53    35    61    1
    54    36    37    1
    55    36    60    1
    56    37    38    1
    57    38    39    1
    58    39    40    1
    59    40    41    1
    60    41    42    1
    61    45   100    1
    62    47   101    1
    63    47   102    1
    64    47   103    1
    65    48   104    1
    66    49   105    1
    67    49   106    1
    68    49   107    1
    69    50   108    1
    70    51    59    1
    71    52   109    1
    72    52   110    1
    73    52   111    1
    74    53    54    1
    75    54    55    2
    76    54    56    1
    77    56   112    1
    78    56   113    1
    79    56   114    1
    80    57   115    1
    81    57   116    1
    82    57   117    1
    83    58   118    1
    84    58   119    1
    85    58   120    1
    86    59   121    1
    87    59   122    1
    88    59   123    1
    89    60    61    2
    90     1    47    1
    91     1    62    1
    92     2    63    1
    93     3    64    1
    94     4    65    1
    95     5     6    1
    96     7     8    2
    97     9    78    1
    98    15    79    1
    99    18    80    1
   100    18    81    1
   101    19    82    1
   102    19    83    1
   103    20    23    1
   104    21    84    1
   105    21    85    1
   106    22    86    1
   107    22    87    1
   108    27    45    1
   109    28    34    1
   110    32    58    1
   111    33    46    2
   112    36    51    1
   113    36    66    1
   114    37    52    1
   115    37    67    1
   116    38    53    1
   117    38    68    1
   118    42    48    1
   119    42    72    1
   120    43    44    2
   121    60    73    1
   122    61    74    1
   123    39    69    1
   124    39    57    1
   125    40    70    1
   126    40    50    1
   127    41    71    1
   128    41    49    1
