@<TRIPOS>MOLECULE
*****
 123 128 0 0 0
SMALL
GASTEIGER

@<TRIPOS>ATOM
     1 C         -4.126038   -0.883269   0.033905 C.3        1 UNL1     0.0009
     2 C         -5.264019   -1.014288   -1.423788 C.2        1 UNL1     -0.0787
     3 C         -6.316061   -0.460203   -2.249768 C.2        1 UNL1     -0.0649
     4 C         -6.936239   -1.078655   -3.698648 C.2        1 UNL1     -0.0542
     5 C         -7.656414   -0.76978   -4.878911 C.2        1 UNL1     0.0115
     6 C         -8.513206   0.320618   -5.579099 C.3        1 UNL1     -0.0348
     7 C         -7.561783   -1.77004   -6.130915 C.2        1 UNL1     0.2441
     8 O         -8.446192   -2.566059   -6.414994 O.2        1 UNL1     -0.2702
     9 N         -6.517115   -1.491757   -7.029458 N.am        1 UNL1     -0.2772
     10 C         -5.364004   -2.132769   -6.638614 C.2        1 UNL1     0.1049
     11 C         -4.643796   -1.52315   -5.714553 C.2        1 UNL1     0.0801
     12 C         -4.479192   -4.357872   -5.915179 C.ar        1 UNL1     0.0753
     13 C         -3.887105   -3.674012   -4.805955 C.ar        1 UNL1     0.0305
     14 C         -3.840923   -2.214925   -4.742844 C.2        1 UNL1     0.0924
     15 N         -4.736458   -0.271562   -5.23344 N.pl3        1 UNL1     -0.3170
     16 C         -3.609371   -0.049259   -4.36712 C.3        1 UNL1     0.1275
     17 N         -3.252303   -1.422106   -3.851837 N.2        1 UNL1     -0.2557
     18 C         -2.442591   0.389599   -5.24674 C.3        1 UNL1     0.0016
     19 C         -2.8692   1.609618   -6.047457 C.3        1 UNL1     0.0026
     20 N         -3.253515   2.665932   -5.121427 N.3        1 UNL1     -0.3018
     21 C         -4.328959   2.316258   -4.191095 C.3        1 UNL1     0.0026
     22 C         -3.877227   1.091304   -3.394024 C.3        1 UNL1     0.0016
     23 C         -3.388661   3.957865   -5.764304 C.3        1 UNL1     0.0012
     24 C         -4.196536   4.918723   -4.877825 C.3        1 UNL1     -0.0339
     25 C         -5.693084   4.883687   -5.228788 C.3        1 UNL1     -0.0615
     26 C         -3.958478   4.599581   -3.412132 C.3        1 UNL1     -0.0615
     27 C         -4.412584   -5.744653   -6.027063 C.ar        1 UNL1     0.1347
     28 C         -3.749174   -6.547735   -5.116571 C.ar        1 UNL1     0.0342
     29 C         -3.216016   -5.857278   -4.007438 C.ar        1 UNL1     0.1435
     30 C         -3.306388   -4.472233   -3.863551 C.ar        1 UNL1     0.0774
     31 O         -2.446809   -6.483858   -3.090527 O.3        1 UNL1     -0.4436
     32 C         -1.730785   -5.426637   -2.434429 C.3        1 UNL1     0.3143
     33 C         -2.573362   -4.18543   -2.648157 C.2        1 UNL1     0.2504
     34 C         -3.421231   -8.003415   -5.299736 C.3        1 UNL1     -0.0327
     35 O         -1.750081   -5.707119   -1.029363 O.2        1 UNL1     -0.4528
     36 C         1.450894   -4.224402   0.371851 C.3        1 UNL1     0.0854
     37 C         1.972722   -2.737527   0.305368 C.3        1 UNL1     0.0236
     38 C         2.317385   -2.078065   1.725954 C.3        1 UNL1     0.1131
     39 C         1.256017   -2.137505   2.897378 C.3        1 UNL1     0.0200
     40 C         -0.354885   -1.828244   2.594411 C.3        1 UNL1     0.0661
     41 C         -0.968314   -0.490449   1.750836 C.3        1 UNL1     0.0091
     42 C         -2.451272   -0.335398   0.682098 C.3        1 UNL1     0.0661
     43 C         -5.089034   -3.534304   -6.988533 C.2        1 UNL1     0.2131
     44 O         -5.264678   -3.933355   -8.125478 O.2        1 UNL1     -0.2851
     45 O         -5.054102   -6.335737   -7.113578 O.3        1 UNL1     -0.5056
     46 O         -2.641061   -3.192678   -1.958436 O.2        1 UNL1     -0.2836
     47 C         -4.90665   -1.135637   1.351834 C.3        1 UNL1     -0.0566
     48 O         -2.924443   0.914295   1.325134 O.3        1 UNL1     -0.3909
     49 C         0.170035   0.194545   1.028037 C.3        1 UNL1     -0.0577
     50 O         -1.022862   -3.0049   2.185742 O.3        1 UNL1     -0.3910
     51 O         1.186915   -4.727536   1.662046 O.3        1 UNL1     -0.3753
     52 C         1.281369   -1.928968   -0.840587 C.3        1 UNL1     -0.0564
     53 O         3.128864   -0.819807   1.622928 O.3        1 UNL1     -0.4608
     54 C         3.297275   0.101835   2.622999 C.2        1 UNL1     0.3042
     55 O         4.201333   0.142629   3.456578 O.2        1 UNL1     -0.2512
     56 C         2.26304   1.191347   2.617171 C.3        1 UNL1     0.0332
     57 C         1.613556   -3.402569   3.808397 C.3        1 UNL1     -0.0567
     58 C         -0.396712   -5.261725   -3.19901 C.3        1 UNL1     0.0210
     59 C         0.080341   -4.120324   2.327367 C.3        1 UNL1     0.0372
     60 C         0.24449   -4.504943   -0.453404 C.2        1 UNL1     -0.0208
     61 C         -0.86542   -5.183411   -0.159252 C.2        1 UNL1     0.0882
     62 H         -3.67868   -1.842451   -0.253414 H        1 UNL1     0.0365
     63 H         -5.02229   -2.017407   -1.781265 H        1 UNL1     0.0576
     64 H         -6.709009   0.544492   -2.078633 H        1 UNL1     0.0615
     65 H         -6.550109   -2.10104   -3.732044 H        1 UNL1     0.0622
     66 H         2.262196   -4.821571   -0.067723 H        1 UNL1     0.0645
     67 H         2.976667   -2.825637   -0.145066 H        1 UNL1     0.0362
     68 H         3.137981   -2.740143   2.041859 H        1 UNL1     0.0741
     69 H         1.507496   -1.385506   3.633357 H        1 UNL1     0.0359
     70 H         -0.712574   -1.651505   3.626827 H        1 UNL1     0.0600
     71 H         -1.141082   0.207002   2.593848 H        1 UNL1     0.0348
     72 H         -2.610791   -1.235502   1.293393 H        1 UNL1     0.0602
     73 H         0.417438   -4.175954   -1.447941 H        1 UNL1     0.0628
     74 H         -1.14417   -5.50415   0.84507 H        1 UNL1     0.1022
     75 H         -9.036853   -0.103997   -6.46934 H        1 UNL1     0.0279
     76 H         -9.33473   0.737559   -5.000887 H        1 UNL1     0.0279
     77 H         -7.902181   1.108988   -6.042588 H        1 UNL1     0.0279
     78 H         -6.325843   -0.492016   -7.032573 H        1 UNL1     0.1553
     79 H         -5.213224   0.473441   -5.707357 H        1 UNL1     0.1484
     80 H         -1.577955   0.611063   -4.609461 H        1 UNL1     0.0317
     81 H         -2.136254   -0.416953   -5.921487 H        1 UNL1     0.0317
     82 H         -3.689099   1.374457   -6.74199 H        1 UNL1     0.0428
     83 H         -2.02321   1.904722   -6.668958 H        1 UNL1     0.0428
     84 H         -4.543603   3.097408   -3.455198 H        1 UNL1     0.0428
     85 H         -5.286175   2.168143   -4.70986 H        1 UNL1     0.0428
     86 H         -4.625804   0.946021   -2.637378 H        1 UNL1     0.0317
     87 H         -2.976048   1.33139   -2.816676 H        1 UNL1     0.0317
     88 H         -2.383312   4.375401   -5.906544 H        1 UNL1     0.0429
     89 H         -3.841114   3.862528   -6.759779 H        1 UNL1     0.0429
     90 H         -3.827013   5.940379   -5.025761 H        1 UNL1     0.0308
     91 H         -6.105733   5.893551   -5.312441 H        1 UNL1     0.0233
     92 H         -5.857212   4.350261   -6.168004 H        1 UNL1     0.0233
     93 H         -6.287543   4.358877   -4.471141 H        1 UNL1     0.0233
     94 H         -2.949535   4.907889   -3.117486 H        1 UNL1     0.0233
     95 H         -4.673048   5.145725   -2.789977 H        1 UNL1     0.0233
     96 H         -4.064277   3.529198   -3.214509 H        1 UNL1     0.0233
     97 H         -2.556577   -8.302991   -4.715049 H        1 UNL1     0.0280
     98 H         -4.242809   -8.656436   -4.977511 H        1 UNL1     0.0280
     99 H         -3.205598   -8.202269   -6.362306 H        1 UNL1     0.0280
     100 H         -4.892871   -5.914978   -7.939767 H        1 UNL1     0.2922
     101 H         -5.82744   -0.552712   1.35115 H        1 UNL1     0.0236
     102 H         -4.309312   -0.955644   2.245016 H        1 UNL1     0.0236
     103 H         -5.23877   -2.183351   1.442308 H        1 UNL1     0.0236
     104 H         -2.632686   1.661776   0.767353 H        1 UNL1     0.2098
     105 H         0.202652   1.272923   1.161631 H        1 UNL1     0.0234
     106 H         1.152932   -0.238858   1.212434 H        1 UNL1     0.0234
     107 H         0.0   0.0   0.0 H        1 UNL1     0.0234
     108 H         -1.915004   -2.984718   2.582533 H        1 UNL1     0.2098
     109 H         1.130247   -2.535139   -1.744705 H        1 UNL1     0.0234
     110 H         0.329428   -1.480247   -0.536941 H        1 UNL1     0.0234
     111 H         1.891129   -1.071813   -1.155903 H        1 UNL1     0.0234
     112 H         1.609858   1.079783   1.746394 H        1 UNL1     0.0342
     113 H         1.684485   1.211759   3.539506 H        1 UNL1     0.0342
     114 H         2.781385   2.155984   2.527963 H        1 UNL1     0.0342
     115 H         1.745869   -3.122403   4.862526 H        1 UNL1     0.0234
     116 H         0.869374   -4.200624   3.771664 H        1 UNL1     0.0234
     117 H         2.598622   -3.844714   3.580156 H        1 UNL1     0.0234
     118 H         -0.550089   -5.192031   -4.290168 H        1 UNL1     0.0309
     119 H         0.186887   -4.398557   -2.863519 H        1 UNL1     0.0309
     120 H         0.259855   -6.132031   -3.091334 H        1 UNL1     0.0309
     121 H         -0.206973   -4.772442   3.151715 H        1 UNL1     0.0524
     122 H         0.337874   -3.137419   2.755866 H        1 UNL1     0.0524
     123 H         -0.751039   -3.997942   1.638946 H        1 UNL1     0.0524
@<TRIPOS>BOND
     1     1     2    1
     2     1    42    1
     3     2     3    2
     4     3     4    1
     5     4     5    2
     6     5     7    1
     7     6    75    1
     8     6    76    1
     9     6    77    1
    10     7     9   am
    11     9    10    1
    12    10    11    2
    13    10    43    1
    14    11    14    1
    15    11    15    1
    16    12    13   ar
    17    12    27   ar
    18    12    43    1
    19    13    14    1
    20    13    30   ar
    21    14    17    2
    22    15    16    1
    23    16    17    1
    24    16    18    1
    25    16    22    1
    26    18    19    1
    27    19    20    1
    28    20    21    1
    29    21    22    1
    30    23    24    1
    31    23    88    1
    32    23    89    1
    33    24    25    1
    34    24    26    1
    35    24    90    1
    36    25    91    1
    37    25    92    1
    38    25    93    1
    39    26    94    1
    40    26    95    1
    41    26    96    1
    42    27    28   ar
    43    28    29   ar
    44    29    30   ar
    45    29    31    1
    46    30    33    1
    47    31    32    1
    48    32    33    1
    49    32    35    1
    50    34    97    1
    51    34    98    1
    52    34    99    1
    53    35    61    1
    54    36    37    1
    55    36    60    1
    56    37    38    1
    57    38    39    1
    58    39    40    1
    59    40    41    1
    60    41    42    1
    61    45   100    1
    62    47   101    1
    63    47   102    1
    64    47   103    1
    65    48   104    1
    66    49   105    1
    67    49   106    1
    68    49   107    1
    69    50   108    1
    70    51    59    1
    71    52   109    1
    72    52   110    1
    73    52   111    1
    74    53    54    1
    75    54    55    2
    76    54    56    1
    77    56   112    1
    78    56   113    1
    79    56   114    1
    80    57   115    1
    81    57   116    1
    82    57   117    1
    83    58   118    1
    84    58   119    1
    85    58   120    1
    86    59   121    1
    87    59   122    1
    88    59   123    1
    89    60    61    2
    90     1    47    1
    91     1    62    1
    92     2    63    1
    93     3    64    1
    94     4    65    1
    95     5     6    1
    96     7     8    2
    97     9    78    1
    98    15    79    1
    99    18    80    1
   100    18    81    1
   101    19    82    1
   102    19    83    1
   103    20    23    1
   104    21    84    1
   105    21    85    1
   106    22    86    1
   107    22    87    1
   108    27    45    1
   109    28    34    1
   110    32    58    1
   111    33    46    2
   112    36    51    1
   113    36    66    1
   114    37    52    1
   115    37    67    1
   116    38    53    1
   117    38    68    1
   118    42    48    1
   119    42    72    1
   120    43    44    2
   121    60    73    1
   122    61    74    1
   123    39    69    1
   124    39    57    1
   125    40    70    1
   126    40    50    1
   127    41    71    1
   128    41    49    1
