@<TRIPOS>MOLECULE
*****
 123 128 0 0 0
SMALL
GASTEIGER

@<TRIPOS>ATOM
     1 C         2.914912   -0.712324   -3.09225 C.3        1 UNL1     0.0009
     2 C         4.203168   -2.043536   -3.165094 C.2        1 UNL1     -0.0787
     3 C         5.588135   -2.457066   -3.081985 C.2        1 UNL1     -0.0649
     4 C         6.208609   -4.031594   -3.129238 C.2        1 UNL1     -0.0542
     5 C         7.31914   -4.851918   -2.811643 C.2        1 UNL1     0.0115
     6 C         8.800625   -4.835623   -2.344461 C.3        1 UNL1     -0.0348
     7 C         7.114488   -6.442457   -2.738902 C.2        1 UNL1     0.2441
     8 O         7.464729   -7.200023   -3.633302 O.2        1 UNL1     -0.2702
     9 N         6.746163   -6.931636   -1.47352 N.am        1 UNL1     -0.2772
     10 C         5.377685   -6.913119   -1.331224 C.2        1 UNL1     0.1049
     11 C         4.845844   -5.76016   -0.967833 C.2        1 UNL1     0.0801
     12 C         3.255093   -7.574942   -2.477491 C.ar        1 UNL1     0.0753
     13 C         2.802416   -6.2379   -2.240823 C.ar        1 UNL1     0.0305
     14 C         3.532638   -5.327142   -1.36199 C.2        1 UNL1     0.0924
     15 N         5.435759   -4.643682   -0.507393 N.pl3        1 UNL1     -0.3170
     16 C         4.39795   -3.736595   -0.094596 C.3        1 UNL1     0.1275
     17 N         3.21253   -4.102369   -0.954081 N.2        1 UNL1     -0.2557
     18 C         4.0152   -4.107801   1.334883 C.3        1 UNL1     0.0016
     19 C         5.265271   -4.066773   2.199307 C.3        1 UNL1     0.0026
     20 N         5.831364   -2.726243   2.139769 N.3        1 UNL1     -0.3018
     21 C         6.174737   -2.255465   0.796328 C.3        1 UNL1     0.0026
     22 C         4.903684   -2.300595   -0.053545 C.3        1 UNL1     0.0016
     23 C         6.842412   -2.495559   3.152296 C.3        1 UNL1     0.0012
     24 C         8.221715   -2.949987   2.64953 C.3        1 UNL1     -0.0339
     25 C         9.344357   -2.4885   3.593332 C.3        1 UNL1     -0.0615
     26 C         8.235975   -4.456683   2.458627 C.3        1 UNL1     -0.0615
     27 C         2.492164   -8.474797   -3.217977 C.ar        1 UNL1     0.1347
     28 C         1.247205   -8.166136   -3.73649 C.ar        1 UNL1     0.0342
     29 C         0.843877   -6.829364   -3.532696 C.ar        1 UNL1     0.1435
     30 C         1.613892   -5.906359   -2.823924 C.ar        1 UNL1     0.0774
     31 O         -0.390173   -6.404591   -3.881545 O.3        1 UNL1     -0.4436
     32 C         -0.590095   -5.205246   -3.118345 C.3        1 UNL1     0.3143
     33 C         0.803087   -4.707075   -2.79111 C.2        1 UNL1     0.2504
     34 C         0.267419   -9.145884   -4.319768 C.3        1 UNL1     -0.0327
     35 O         -1.184344   -4.238008   -3.992743 O.2        1 UNL1     -0.4528
     36 C         -3.327495   -2.016255   -1.783941 C.3        1 UNL1     0.0854
     37 C         -2.909421   -1.160855   -0.526552 C.3        1 UNL1     0.0236
     38 C         -3.284605   0.395901   -0.613119 C.3        1 UNL1     0.1131
     39 C         -2.874275   1.232507   -1.891395 C.3        1 UNL1     0.0200
     40 C         -1.357797   1.05847   -2.564033 C.3        1 UNL1     0.0661
     41 C         0.114823   1.121176   -1.724349 C.3        1 UNL1     0.0091
     42 C         1.698422   0.247808   -2.032316 C.3        1 UNL1     0.0661
     43 C         4.522586   -7.999231   -1.832742 C.2        1 UNL1     0.2131
     44 O         4.814454   -9.162651   -1.622974 O.2        1 UNL1     -0.2851
     45 O         3.025845   -9.742465   -3.44078 O.3        1 UNL1     -0.5056
     46 O         1.166065   -3.57259   -2.574212 O.2        1 UNL1     -0.2836
     47 C         2.955442   0.148561   -4.383457 C.3        1 UNL1     -0.0566
     48 O         2.530026   1.467491   -1.891165 O.3        1 UNL1     -0.3909
     49 C         -0.164266   1.019003   -0.241391 C.3        1 UNL1     -0.0577
     50 O         -1.340236   -0.008118   -3.49129 O.3        1 UNL1     -0.3910
     51 O         -3.814326   -1.28929   -2.889359 O.3        1 UNL1     -0.3753
     52 C         -1.563055   -1.65814   0.093895 C.3        1 UNL1     -0.0564
     53 O         -3.202813   1.107605   0.705636 O.3        1 UNL1     -0.4608
     54 C         -3.36725   2.455044   0.893513 C.2        1 UNL1     0.3042
     55 O         -2.898004   3.366715   0.213438 O.2        1 UNL1     -0.2512
     56 C         -4.276636   2.795892   2.039617 C.3        1 UNL1     0.0332
     57 C         -4.130949   1.249225   -2.880671 C.3        1 UNL1     -0.0567
     58 C         -1.287955   -5.632955   -1.806252 C.3        1 UNL1     0.0210
     59 C         -4.599495   -2.048654   -3.807369 C.3        1 UNL1     0.0372
     60 C         -2.272875   -2.929892   -2.301827 C.2        1 UNL1     -0.0208
     61 C         -1.872626   -3.167645   -3.551634 C.2        1 UNL1     0.0882
     62 H         2.144027   -1.476323   -3.249581 H        1 UNL1     0.0365
     63 H         3.591151   -2.904119   -3.443126 H        1 UNL1     0.0576
     64 H         6.379177   -1.756295   -2.805799 H        1 UNL1     0.0615
     65 H         5.368424   -4.632129   -3.488306 H        1 UNL1     0.0622
     66 H         -4.1362   -2.665373   -1.419677 H        1 UNL1     0.0645
     67 H         -3.589732   -1.506545   0.271091 H        1 UNL1     0.0362
     68 H         -4.38179   0.318644   -0.654816 H        1 UNL1     0.0741
     69 H         -2.904041   2.284992   -1.642805 H        1 UNL1     0.0359
     70 H         -1.321277   1.970224   -3.190477 H        1 UNL1     0.0600
     71 H         0.350216   2.198663   -1.827159 H        1 UNL1     0.0348
     72 H         1.137749   0.201353   -2.977199 H        1 UNL1     0.0602
     73 H         -1.905617   -3.526927   -1.504382 H        1 UNL1     0.0628
     74 H         -2.156463   -2.565181   -4.41518 H        1 UNL1     0.1022
     75 H         9.210728   -3.797475   -2.377608 H        1 UNL1     0.0279
     76 H         8.987531   -5.128533   -1.313763 H        1 UNL1     0.0279
     77 H         9.472388   -5.356478   -3.042419 H        1 UNL1     0.0279
     78 H         7.137645   -6.333965   -0.748532 H        1 UNL1     0.1553
     79 H         6.362151   -4.621434   -0.122378 H        1 UNL1     0.1484
     80 H         3.255413   -3.404065   1.695777 H        1 UNL1     0.0317
     81 H         3.562409   -5.104404   1.372475 H        1 UNL1     0.0317
     82 H         6.001596   -4.82164   1.886395 H        1 UNL1     0.0428
     83 H         4.969994   -4.336351   3.213797 H        1 UNL1     0.0428
     84 H         6.522693   -1.218123   0.770661 H        1 UNL1     0.0428
     85 H         7.007332   -2.826943   0.363299 H        1 UNL1     0.0428
     86 H         5.160034   -1.827326   -0.983216 H        1 UNL1     0.0317
     87 H         4.145094   -1.631739   0.371034 H        1 UNL1     0.0317
     88 H         6.882346   -1.417441   3.355671 H        1 UNL1     0.0429
     89 H         6.581894   -2.991468   4.096212 H        1 UNL1     0.0429
     90 H         8.401538   -2.520577   1.656815 H        1 UNL1     0.0308
     91 H         10.165165   -3.211512   3.618458 H        1 UNL1     0.0233
     92 H         9.733018   -1.515283   3.284465 H        1 UNL1     0.0233
     93 H         8.997215   -2.365291   4.626361 H        1 UNL1     0.0233
     94 H         8.955398   -4.917469   3.14415 H        1 UNL1     0.0233
     95 H         7.247923   -4.870556   2.678686 H        1 UNL1     0.0233
     96 H         8.511882   -4.726682   1.435424 H        1 UNL1     0.0233
     97 H         0.602043   -9.536317   -5.27623 H        1 UNL1     0.0280
     98 H         0.121746   -10.020558   -3.67248 H        1 UNL1     0.0280
     99 H         -0.70535   -8.649741   -4.470293 H        1 UNL1     0.0280
     100 H         2.831921   -10.37249   -2.769152 H        1 UNL1     0.2922
     101 H         2.244718   0.970468   -4.299818 H        1 UNL1     0.0236
     102 H         2.802598   -0.433474   -5.291674 H        1 UNL1     0.0236
     103 H         3.933698   0.637762   -4.524495 H        1 UNL1     0.0236
     104 H         2.565801   1.902879   -2.76531 H        1 UNL1     0.2098
     105 H         0.494125   1.618886   0.381885 H        1 UNL1     0.0234
     106 H         -1.20442   1.18498   0.038714 H        1 UNL1     0.0234
     107 H         0.0   0.0   0.0 H        1 UNL1     0.0234
     108 H         -0.521321   0.077511   -4.016471 H        1 UNL1     0.2098
     109 H         -1.655472   -1.877809   1.166703 H        1 UNL1     0.0234
     110 H         -1.146195   -2.528747   -0.423806 H        1 UNL1     0.0234
     111 H         -0.774891   -0.897745   0.01301 H        1 UNL1     0.0234
     112 H         -5.318333   2.782323   1.704907 H        1 UNL1     0.0342
     113 H         -4.13075   2.13128   2.889824 H        1 UNL1     0.0342
     114 H         -4.042738   3.816903   2.371268 H        1 UNL1     0.0342
     115 H         -4.433764   2.273316   -3.13899 H        1 UNL1     0.0234
     116 H         -3.967209   0.709541   -3.81554 H        1 UNL1     0.0234
     117 H         -5.057159   0.862454   -2.421884 H        1 UNL1     0.0234
     118 H         -0.934401   -5.048293   -0.938971 H        1 UNL1     0.0309
     119 H         -2.379441   -5.569786   -1.859821 H        1 UNL1     0.0309
     120 H         -1.057459   -6.666359   -1.525087 H        1 UNL1     0.0309
     121 H         -3.941007   -2.377777   -4.610754 H        1 UNL1     0.0524
     122 H         -5.031826   -2.950151   -3.34215 H        1 UNL1     0.0524
     123 H         -5.403898   -1.43848   -4.208264 H        1 UNL1     0.0524
@<TRIPOS>BOND
     1     1     2    1
     2     1    42    1
     3     2     3    2
     4     3     4    1
     5     4     5    2
     6     5     7    1
     7     6    75    1
     8     6    76    1
     9     6    77    1
    10     7     9   am
    11     9    10    1
    12    10    11    2
    13    10    43    1
    14    11    14    1
    15    11    15    1
    16    12    13   ar
    17    12    27   ar
    18    12    43    1
    19    13    14    1
    20    13    30   ar
    21    14    17    2
    22    15    16    1
    23    16    17    1
    24    16    18    1
    25    16    22    1
    26    18    19    1
    27    19    20    1
    28    20    21    1
    29    21    22    1
    30    23    24    1
    31    23    88    1
    32    23    89    1
    33    24    25    1
    34    24    26    1
    35    24    90    1
    36    25    91    1
    37    25    92    1
    38    25    93    1
    39    26    94    1
    40    26    95    1
    41    26    96    1
    42    27    28   ar
    43    28    29   ar
    44    29    30   ar
    45    29    31    1
    46    30    33    1
    47    31    32    1
    48    32    33    1
    49    32    35    1
    50    34    97    1
    51    34    98    1
    52    34    99    1
    53    35    61    1
    54    36    37    1
    55    36    60    1
    56    37    38    1
    57    38    39    1
    58    39    40    1
    59    40    41    1
    60    41    42    1
    61    45   100    1
    62    47   101    1
    63    47   102    1
    64    47   103    1
    65    48   104    1
    66    49   105    1
    67    49   106    1
    68    49   107    1
    69    50   108    1
    70    51    59    1
    71    52   109    1
    72    52   110    1
    73    52   111    1
    74    53    54    1
    75    54    55    2
    76    54    56    1
    77    56   112    1
    78    56   113    1
    79    56   114    1
    80    57   115    1
    81    57   116    1
    82    57   117    1
    83    58   118    1
    84    58   119    1
    85    58   120    1
    86    59   121    1
    87    59   122    1
    88    59   123    1
    89    60    61    2
    90     1    47    1
    91     1    62    1
    92     2    63    1
    93     3    64    1
    94     4    65    1
    95     5     6    1
    96     7     8    2
    97     9    78    1
    98    15    79    1
    99    18    80    1
   100    18    81    1
   101    19    82    1
   102    19    83    1
   103    20    23    1
   104    21    84    1
   105    21    85    1
   106    22    86    1
   107    22    87    1
   108    27    45    1
   109    28    34    1
   110    32    58    1
   111    33    46    2
   112    36    51    1
   113    36    66    1
   114    37    52    1
   115    37    67    1
   116    38    53    1
   117    38    68    1
   118    42    48    1
   119    42    72    1
   120    43    44    2
   121    60    73    1
   122    61    74    1
   123    39    69    1
   124    39    57    1
   125    40    70    1
   126    40    50    1
   127    41    71    1
   128    41    49    1
