@<TRIPOS>MOLECULE
*****
 123 128 0 0 0
SMALL
GASTEIGER

@<TRIPOS>ATOM
     1 C         0.285643   -4.920068   0.101999 C.3        1 UNL1     0.0009
     2 C         -0.703933   -6.401632   0.614584 C.2        1 UNL1     -0.0787
     3 C         -1.167965   -7.307082   1.644576 C.2        1 UNL1     -0.0649
     4 C         -2.29091   -8.565278   1.495262 C.2        1 UNL1     -0.0542
     5 C         -3.183516   -9.41399   2.195277 C.2        1 UNL1     0.0115
     6 C         -3.625736   -9.879818   3.609763 C.3        1 UNL1     -0.0348
     7 C         -4.334063   -10.17664   1.375768 C.2        1 UNL1     0.2441
     8 O         -4.261846   -11.359333   1.071551 O.2        1 UNL1     -0.2702
     9 N         -5.542127   -9.467486   1.258156 N.am        1 UNL1     -0.2772
     10 C         -5.516145   -8.655506   0.1476 C.2        1 UNL1     0.1049
     11 C         -4.92008   -7.486268   0.295286 C.2        1 UNL1     0.0801
     12 C         -4.993101   -8.656551   -2.298572 C.ar        1 UNL1     0.0753
     13 C         -4.184771   -7.502597   -2.046379 C.ar        1 UNL1     0.0305
     14 C         -4.228232   -6.803339   -0.764115 C.2        1 UNL1     0.0924
     15 N         -4.511472   -6.85993   1.412097 N.pl3        1 UNL1     -0.3170
     16 C         -4.080864   -5.537884   1.04193 C.3        1 UNL1     0.1275
     17 N         -3.630867   -5.674756   -0.392118 N.2        1 UNL1     -0.2557
     18 C         -5.321067   -4.649739   1.013667 C.3        1 UNL1     0.0016
     19 C         -6.007803   -4.730175   2.367739 C.3        1 UNL1     0.0026
     20 N         -5.072054   -4.290922   3.393633 N.3        1 UNL1     -0.3018
     21 C         -3.819593   -5.046981   3.457549 C.3        1 UNL1     0.0026
     22 C         -3.144289   -4.948808   2.088527 C.3        1 UNL1     0.0016
     23 C         -5.710653   -4.044463   4.671166 C.3        1 UNL1     0.0012
     24 C         -6.042522   -5.371138   5.372273 C.3        1 UNL1     -0.0339
     25 C         -5.434078   -6.569478   4.62539 C.3        1 UNL1     -0.0615
     26 C         -5.585112   -5.323851   6.819795 C.3        1 UNL1     -0.0615
     27 C         -5.037168   -9.245168   -3.560201 C.ar        1 UNL1     0.1347
     28 C         -4.350254   -8.747787   -4.653276 C.ar        1 UNL1     0.0342
     29 C         -3.52295   -7.640405   -4.369662 C.ar        1 UNL1     0.1435
     30 C         -3.440787   -7.062181   -3.102331 C.ar        1 UNL1     0.0774
     31 O         -2.875524   -6.97476   -5.350867 O.3        1 UNL1     -0.4436
     32 C         -2.557395   -5.698927   -4.774743 C.3        1 UNL1     0.3143
     33 C         -2.555119   -5.930015   -3.277143 C.2        1 UNL1     0.2504
     34 C         -4.54361   -9.170346   -6.083016 C.3        1 UNL1     -0.0327
     35 O         -1.210585   -5.385729   -5.15059 O.2        1 UNL1     -0.4528
     36 C         -1.036543   -1.598581   -5.338506 C.3        1 UNL1     0.0854
     37 C         -1.360792   -0.52983   -4.224883 C.3        1 UNL1     0.0236
     38 C         -0.176001   0.506111   -3.916922 C.3        1 UNL1     0.1131
     39 C         1.281486   -0.033161   -3.621647 C.3        1 UNL1     0.0200
     40 C         1.509362   -1.346454   -2.618766 C.3        1 UNL1     0.0661
     41 C         0.836856   -1.545745   -1.074217 C.3        1 UNL1     0.0091
     42 C         0.31039   -3.065952   -0.192624 C.3        1 UNL1     0.0661
     43 C         -5.852349   -9.152447   -1.194924 C.2        1 UNL1     0.2131
     44 O         -6.841398   -9.841   -1.369323 O.2        1 UNL1     -0.2851
     45 O         -5.813359   -10.392571   -3.70997 O.3        1 UNL1     -0.5056
     46 O         -1.94269   -5.329127   -2.422908 O.2        1 UNL1     -0.2836
     47 C         1.800036   -5.261281   0.088985 C.3        1 UNL1     -0.0566
     48 O         0.997274   -2.707524   1.071826 O.3        1 UNL1     -0.3909
     49 C         -0.261022   -0.522958   -0.884309 C.3        1 UNL1     -0.0577
     50 O         1.415625   -2.554706   -3.346134 O.3        1 UNL1     -0.3910
     51 O         0.296219   -1.625335   -5.797265 O.3        1 UNL1     -0.3753
     52 C         -2.260618   -1.124072   -3.092566 C.3        1 UNL1     -0.0564
     53 O         -0.616569   1.705781   -3.130146 O.3        1 UNL1     -0.4608
     54 C         -1.593228   1.711371   -2.168878 C.2        1 UNL1     0.3042
     55 O         -1.450474   1.891535   -0.96016 O.2        1 UNL1     -0.2512
     56 C         -2.979071   1.526777   -2.718494 C.3        1 UNL1     0.0332
     57 C         2.097638   0.005086   -4.99664 C.3        1 UNL1     -0.0567
     58 C         -3.728004   -4.75359   -5.131872 C.3        1 UNL1     0.0210
     59 C         0.450469   -1.981507   -7.170296 C.3        1 UNL1     0.0372
     60 C         -1.398782   -2.999498   -4.990116 C.2        1 UNL1     -0.0208
     61 C         -0.714475   -4.133594   -5.145989 C.2        1 UNL1     0.0882
     62 H         -0.075085   -5.058142   -0.924413 H        1 UNL1     0.0365
     63 H         -1.06022   -6.754083   -0.355626 H        1 UNL1     0.0576
     64 H         -0.937383   -7.140806   2.699228 H        1 UNL1     0.0615
     65 H         -2.388426   -8.700681   0.414689 H        1 UNL1     0.0622
     66 H         -1.682607   -1.321525   -6.183425 H        1 UNL1     0.0645
     67 H         -2.111275   0.128698   -4.695708 H        1 UNL1     0.0362
     68 H         -0.109563   1.005761   -4.89542 H        1 UNL1     0.0741
     69 H         1.846576   0.744755   -3.125735 H        1 UNL1     0.0359
     70 H         2.589384   -1.23653   -2.403062 H        1 UNL1     0.0600
     71 H         1.646119   -1.113207   -0.453766 H        1 UNL1     0.0348
     72 H         0.992984   -3.397863   -0.988373 H        1 UNL1     0.0602
     73 H         -2.412513   -3.030314   -4.676034 H        1 UNL1     0.0628
     74 H         0.34291   -4.184767   -5.407821 H        1 UNL1     0.1022
     75 H         -4.726463   -10.066393   3.634731 H        1 UNL1     0.0279
     76 H         -3.219637   -10.827005   3.957598 H        1 UNL1     0.0279
     77 H         -3.522311   -9.090792   4.369001 H        1 UNL1     0.0279
     78 H         -5.668279   -8.869377   2.072054 H        1 UNL1     0.1553
     79 H         -4.845259   -7.08563   2.331107 H        1 UNL1     0.1484
     80 H         -5.019517   -3.621992   0.777936 H        1 UNL1     0.0317
     81 H         -6.009366   -4.963908   0.221711 H        1 UNL1     0.0317
     82 H         -6.377235   -5.744838   2.577241 H        1 UNL1     0.0428
     83 H         -6.890307   -4.091105   2.325001 H        1 UNL1     0.0428
     84 H         -3.102436   -4.647344   4.18128 H        1 UNL1     0.0428
     85 H         -3.983342   -6.08205   3.787906 H        1 UNL1     0.0428
     86 H         -2.175641   -5.396901   2.21068 H        1 UNL1     0.0317
     87 H         -2.912379   -3.901532   1.859342 H        1 UNL1     0.0317
     88 H         -5.008809   -3.482328   5.301018 H        1 UNL1     0.0429
     89 H         -6.607692   -3.422653   4.555198 H        1 UNL1     0.0429
     90 H         -7.131205   -5.496985   5.406132 H        1 UNL1     0.0308
     91 H         -4.344164   -6.585325   4.719936 H        1 UNL1     0.0233
     92 H         -5.840818   -7.509138   5.006454 H        1 UNL1     0.0233
     93 H         -5.66008   -6.551275   3.552344 H        1 UNL1     0.0233
     94 H         -4.663067   -4.738785   6.905621 H        1 UNL1     0.0233
     95 H         -6.348549   -4.842442   7.437348 H        1 UNL1     0.0233
     96 H         -5.395434   -6.327191   7.211332 H        1 UNL1     0.0233
     97 H         -5.586263   -9.126686   -6.383347 H        1 UNL1     0.0280
     98 H         -4.001727   -8.521295   -6.783267 H        1 UNL1     0.0280
     99 H         -4.189709   -10.206209   -6.212776 H        1 UNL1     0.0280
     100 H         -6.713671   -10.292255   -3.455025 H        1 UNL1     0.2922
     101 H         2.276789   -4.785406   -0.767698 H        1 UNL1     0.0236
     102 H         1.998522   -6.33193   0.12499 H        1 UNL1     0.0236
     103 H         2.325118   -4.848468   0.96652 H        1 UNL1     0.0236
     104 H         1.959575   -2.751623   0.907499 H        1 UNL1     0.2098
     105 H         -0.342018   0.203608   -1.688892 H        1 UNL1     0.0234
     106 H         -1.240133   -0.94319   -0.654803 H        1 UNL1     0.0234
     107 H         0.0   0.0   0.0 H        1 UNL1     0.0234
     108 H         0.729759   -3.100278   -2.915196 H        1 UNL1     0.2098
     109 H         -3.325686   -1.12188   -3.363374 H        1 UNL1     0.0234
     110 H         -1.961491   -2.133463   -2.790248 H        1 UNL1     0.0234
     111 H         -2.187902   -0.536626   -2.167599 H        1 UNL1     0.0234
     112 H         -2.956586   0.822887   -3.555978 H        1 UNL1     0.0342
     113 H         -3.682996   1.201842   -1.953805 H        1 UNL1     0.0342
     114 H         -3.327912   2.49548   -3.102015 H        1 UNL1     0.0342
     115 H         1.832164   -0.835361   -5.65266 H        1 UNL1     0.0234
     116 H         1.960169   0.924586   -5.569065 H        1 UNL1     0.0234
     117 H         3.181683   -0.158041   -4.869443 H        1 UNL1     0.0234
     118 H         -4.537812   -5.280156   -5.666612 H        1 UNL1     0.0309
     119 H         -4.1481   -4.241702   -4.260269 H        1 UNL1     0.0309
     120 H         -3.432922   -3.965528   -5.833293 H        1 UNL1     0.0309
     121 H         0.66945   -1.069464   -7.724896 H        1 UNL1     0.0524
     122 H         1.291031   -2.67716   -7.330171 H        1 UNL1     0.0524
     123 H         -0.461268   -2.43818   -7.544837 H        1 UNL1     0.0524
@<TRIPOS>BOND
     1     1     2    1
     2     1    42    1
     3     2     3    2
     4     3     4    1
     5     4     5    2
     6     5     7    1
     7     6    75    1
     8     6    76    1
     9     6    77    1
    10     7     9   am
    11     9    10    1
    12    10    11    2
    13    10    43    1
    14    11    14    1
    15    11    15    1
    16    12    13   ar
    17    12    27   ar
    18    12    43    1
    19    13    14    1
    20    13    30   ar
    21    14    17    2
    22    15    16    1
    23    16    17    1
    24    16    18    1
    25    16    22    1
    26    18    19    1
    27    19    20    1
    28    20    21    1
    29    21    22    1
    30    23    24    1
    31    23    88    1
    32    23    89    1
    33    24    25    1
    34    24    26    1
    35    24    90    1
    36    25    91    1
    37    25    92    1
    38    25    93    1
    39    26    94    1
    40    26    95    1
    41    26    96    1
    42    27    28   ar
    43    28    29   ar
    44    29    30   ar
    45    29    31    1
    46    30    33    1
    47    31    32    1
    48    32    33    1
    49    32    35    1
    50    34    97    1
    51    34    98    1
    52    34    99    1
    53    35    61    1
    54    36    37    1
    55    36    60    1
    56    37    38    1
    57    38    39    1
    58    39    40    1
    59    40    41    1
    60    41    42    1
    61    45   100    1
    62    47   101    1
    63    47   102    1
    64    47   103    1
    65    48   104    1
    66    49   105    1
    67    49   106    1
    68    49   107    1
    69    50   108    1
    70    51    59    1
    71    52   109    1
    72    52   110    1
    73    52   111    1
    74    53    54    1
    75    54    55    2
    76    54    56    1
    77    56   112    1
    78    56   113    1
    79    56   114    1
    80    57   115    1
    81    57   116    1
    82    57   117    1
    83    58   118    1
    84    58   119    1
    85    58   120    1
    86    59   121    1
    87    59   122    1
    88    59   123    1
    89    60    61    2
    90     1    47    1
    91     1    62    1
    92     2    63    1
    93     3    64    1
    94     4    65    1
    95     5     6    1
    96     7     8    2
    97     9    78    1
    98    15    79    1
    99    18    80    1
   100    18    81    1
   101    19    82    1
   102    19    83    1
   103    20    23    1
   104    21    84    1
   105    21    85    1
   106    22    86    1
   107    22    87    1
   108    27    45    1
   109    28    34    1
   110    32    58    1
   111    33    46    2
   112    36    51    1
   113    36    66    1
   114    37    52    1
   115    37    67    1
   116    38    53    1
   117    38    68    1
   118    42    48    1
   119    42    72    1
   120    43    44    2
   121    60    73    1
   122    61    74    1
   123    39    69    1
   124    39    57    1
   125    40    70    1
   126    40    50    1
   127    41    71    1
   128    41    49    1
