@<TRIPOS>MOLECULE
*****
 123 128 0 0 0
SMALL
GASTEIGER

@<TRIPOS>ATOM
     1 C         4.937559   2.365741   -0.151825 C.3        1 UNL1     0.0009
     2 C         6.123563   3.383681   -1.148935 C.2        1 UNL1     -0.0787
     3 C         7.292851   3.477798   -1.997436 C.2        1 UNL1     -0.0649
     4 C         7.893378   4.845936   -2.793629 C.2        1 UNL1     -0.0542
     5 C         8.718123   5.306146   -3.849602 C.2        1 UNL1     0.0115
     6 C         9.769036   4.867045   -4.906056 C.3        1 UNL1     -0.0348
     7 C         8.544111   6.814638   -4.370334 C.2        1 UNL1     0.2441
     8 O         9.312088   7.716669   -4.065248 O.2        1 UNL1     -0.2702
     9 N         7.606696   6.975968   -5.405407 N.am        1 UNL1     -0.2772
     10 C         6.349248   7.183038   -4.886496 C.2        1 UNL1     0.1049
     11 C         5.678553   6.100526   -4.536412 C.2        1 UNL1     0.0801
     12 C         5.09703   8.549111   -3.206279 C.ar        1 UNL1     0.0753
     13 C         4.553494   7.315683   -2.72479 C.ar        1 UNL1     0.0305
     14 C         4.725927   6.064786   -3.460028 C.2        1 UNL1     0.0924
     15 N         5.93268   4.806009   -4.793652 N.pl3        1 UNL1     -0.3170
     16 C         4.804958   4.037722   -4.337329 C.3        1 UNL1     0.1275
     17 N         4.214782   4.860908   -3.218499 N.2        1 UNL1     -0.2557
     18 C         3.770357   4.043562   -5.458609 C.3        1 UNL1     0.0016
     19 C         4.422193   3.510579   -6.72456 C.3        1 UNL1     0.0026
     20 N         4.909125   2.16222   -6.467944 N.3        1 UNL1     -0.3018
     21 C         5.864256   2.045704   -5.364079 C.3        1 UNL1     0.0026
     22 C         5.187089   2.582368   -4.101807 C.3        1 UNL1     0.0016
     23 C         5.275292   1.454889   -7.678831 C.3        1 UNL1     0.0012
     24 C         4.022826   1.104334   -8.497488 C.3        1 UNL1     -0.0339
     25 C         3.821685   2.084307   -9.665071 C.3        1 UNL1     -0.0615
     26 C         4.102525   -0.33307   -8.981531 C.3        1 UNL1     -0.0615
     27 C         4.827059   9.755864   -2.5652 C.ar        1 UNL1     0.1347
     28 C         3.998629   9.859565   -1.462023 C.ar        1 UNL1     0.0342
     29 C         3.514248   8.626375   -0.97645 C.ar        1 UNL1     0.1435
     30 C         3.805583   7.405794   -1.586799 C.ar        1 UNL1     0.0774
     31 O         2.607864   8.569788   0.023686 O.3        1 UNL1     -0.4436
     32 C         2.024531   7.262927   -0.089052 C.3        1 UNL1     0.3143
     33 C         3.056627   6.430339   -0.822393 C.2        1 UNL1     0.2504
     34 C         3.464377   11.137509   -0.877615 C.3        1 UNL1     -0.0327
     35 O         1.92098   6.726931   1.235802 O.2        1 UNL1     -0.4528
     36 C         -1.092199   4.418917   1.192064 C.3        1 UNL1     0.0854
     37 C         -1.377515   3.170288   0.271715 C.3        1 UNL1     0.0236
     38 C         -1.698336   1.810111   1.058313 C.3        1 UNL1     0.1131
     39 C         -0.726741   1.318928   2.205925 C.3        1 UNL1     0.0200
     40 C         0.927048   1.383213   1.997873 C.3        1 UNL1     0.0661
     41 C         1.783558   0.793893   0.657461 C.3        1 UNL1     0.0091
     42 C         3.331273   1.394042   -0.123437 C.3        1 UNL1     0.0661
     43 C         5.884985   8.512587   -4.463281 C.2        1 UNL1     0.2131
     44 O         6.062426   9.484625   -5.174895 O.2        1 UNL1     -0.2851
     45 O         5.43217   10.904533   -3.071003 O.3        1 UNL1     -0.5056
     46 O         3.234934   5.233955   -0.770185 O.2        1 UNL1     -0.2836
     47 C         5.594474   1.92742   1.184707 C.3        1 UNL1     -0.0566
     48 O         3.951365   0.048867   -0.194898 O.3        1 UNL1     -0.3909
     49 C         0.805464   0.512011   -0.461185 C.3        1 UNL1     -0.0577
     50 O         1.430743   2.648911   2.374729 O.3        1 UNL1     -0.3910
     51 O         -0.981582   4.154394   2.572362 O.3        1 UNL1     -0.3753
     52 C         -0.507276   3.193897   -1.02716 C.3        1 UNL1     -0.0564
     53 O         -2.302109   0.743546   0.192158 O.3        1 UNL1     -0.4608
     54 C         -2.295922   -0.599573   0.464043 C.2        1 UNL1     0.3042
     55 O         -1.676068   -1.479431   -0.13217 O.2        1 UNL1     -0.2512
     56 C         -3.111266   -0.972961   1.669243 C.3        1 UNL1     0.0332
     57 C         -1.323542   1.835455   3.597041 C.3        1 UNL1     -0.0567
     58 C         0.776698   7.417092   -0.989428 C.3        1 UNL1     0.0210
     59 C         -1.317298   5.25076   3.421561 C.3        1 UNL1     0.0372
     60 C         0.102608   5.220674   0.811561 C.2        1 UNL1     -0.0208
     61 C         1.078033   5.729551   1.56544 C.2        1 UNL1     0.0882
     62 H         4.366808   3.276976   0.064059 H        1 UNL1     0.0365
     63 H         5.75304   4.389672   -0.941175 H        1 UNL1     0.0576
     64 H         7.82344   2.587267   -2.34173 H        1 UNL1     0.0615
     65 H         7.358989   5.676252   -2.32407 H        1 UNL1     0.0622
     66 H         -1.958426   5.078007   1.039428 H        1 UNL1     0.0645
     67 H         -2.355904   3.394012   -0.187918 H        1 UNL1     0.0362
     68 H         -2.626604   2.107768   1.56943 H        1 UNL1     0.0741
     69 H         -0.902582   0.266425   2.384042 H        1 UNL1     0.0359
     70 H         1.248065   0.704454   2.811073 H        1 UNL1     0.0600
     71 H         2.011967   -0.23122   1.009497 H        1 UNL1     0.0348
     72 H         3.317175   1.821609   0.88963 H        1 UNL1     0.0602
     73 H         0.038536   5.476392   -0.21691 H        1 UNL1     0.0628
     74 H         1.247202   5.471788   2.61147 H        1 UNL1     0.1022
     75 H         9.945842   3.765903   -4.848951 H        1 UNL1     0.0279
     76 H         9.495526   5.006585   -5.949507 H        1 UNL1     0.0279
     77 H         10.774498   5.259332   -4.694259 H        1 UNL1     0.0279
     78 H         7.569968   6.128954   -5.968697 H        1 UNL1     0.1553
     79 H         6.543261   4.493092   -5.525914 H        1 UNL1     0.1484
     80 H         2.914523   3.426863   -5.158616 H        1 UNL1     0.0317
     81 H         3.383997   5.054133   -5.629268 H        1 UNL1     0.0317
     82 H         5.235062   4.165761   -7.070815 H        1 UNL1     0.0428
     83 H         3.667606   3.525066   -7.511605 H        1 UNL1     0.0428
     84 H         6.152798   1.013865   -5.140775 H        1 UNL1     0.0428
     85 H         6.815837   2.545372   -5.592427 H        1 UNL1     0.0428
     86 H         5.860611   2.359941   -3.295035 H        1 UNL1     0.0317
     87 H         4.301435   1.979566   -3.866556 H        1 UNL1     0.0317
     88 H         5.912687   2.11564   -8.280852 H        1 UNL1     0.0429
     89 H         5.865063   0.557064   -7.453321 H        1 UNL1     0.0429
     90 H         3.142523   1.152485   -7.845598 H        1 UNL1     0.0308
     91 H         4.69586   2.104185   -10.322737 H        1 UNL1     0.0233
     92 H         2.939342   1.813037   -10.249446 H        1 UNL1     0.0233
     93 H         3.657431   3.113327   -9.323056 H        1 UNL1     0.0233
     94 H         3.327125   -0.52255   -9.731656 H        1 UNL1     0.0233
     95 H         5.074584   -0.517019   -9.447606 H        1 UNL1     0.0233
     96 H         3.966591   -1.039596   -8.157934 H        1 UNL1     0.0233
     97 H         2.796086   10.95503   -0.041362 H        1 UNL1     0.0280
     98 H         4.26434   11.780698   -0.488227 H        1 UNL1     0.0280
     99 H         2.907413   11.692206   -1.650401 H        1 UNL1     0.0280
     100 H         4.836173   11.603825   -3.27448 H        1 UNL1     0.2922
     101 H         4.871595   1.377098   1.786578 H        1 UNL1     0.0236
     102 H         6.039267   2.755503   1.735544 H        1 UNL1     0.0236
     103 H         6.423795   1.218143   1.025504 H        1 UNL1     0.0236
     104 H         4.505084   -0.063401   0.602449 H        1 UNL1     0.2098
     105 H         0.403574   1.400883   -0.94098 H        1 UNL1     0.0234
     106 H         1.162568   -0.193462   -1.211326 H        1 UNL1     0.0234
     107 H         0.0   -0.0   0.0 H        1 UNL1     0.0234
     108 H         1.067128   3.304064   1.748369 H        1 UNL1     0.2098
     109 H         0.569211   3.207056   -0.806446 H        1 UNL1     0.0234
     110 H         -0.731169   2.367509   -1.710313 H        1 UNL1     0.0234
     111 H         -0.698858   4.093996   -1.626379 H        1 UNL1     0.0234
     112 H         -3.047152   -2.051511   1.842348 H        1 UNL1     0.0342
     113 H         -2.810497   -0.416434   2.555617 H        1 UNL1     0.0342
     114 H         -4.161901   -0.726951   1.46234 H        1 UNL1     0.0342
     115 H         -2.342772   1.462386   3.767863 H        1 UNL1     0.0234
     116 H         -0.72336   1.561053   4.466831 H        1 UNL1     0.0234
     117 H         -1.488057   2.92631   3.627213 H        1 UNL1     0.0234
     118 H         -0.104425   7.763039   -0.421142 H        1 UNL1     0.0309
     119 H         0.940342   8.087131   -1.839411 H        1 UNL1     0.0309
     120 H         0.444654   6.463587   -1.414494 H        1 UNL1     0.0309
     121 H         -0.592593   6.04361   3.238398 H        1 UNL1     0.0524
     122 H         -2.318092   5.658635   3.202272 H        1 UNL1     0.0524
     123 H         -1.282038   4.943986   4.46307 H        1 UNL1     0.0524
@<TRIPOS>BOND
     1     1     2    1
     2     1    42    1
     3     2     3    2
     4     3     4    1
     5     4     5    2
     6     5     7    1
     7     6    75    1
     8     6    76    1
     9     6    77    1
    10     7     9   am
    11     9    10    1
    12    10    11    2
    13    10    43    1
    14    11    14    1
    15    11    15    1
    16    12    13   ar
    17    12    27   ar
    18    12    43    1
    19    13    14    1
    20    13    30   ar
    21    14    17    2
    22    15    16    1
    23    16    17    1
    24    16    18    1
    25    16    22    1
    26    18    19    1
    27    19    20    1
    28    20    21    1
    29    21    22    1
    30    23    24    1
    31    23    88    1
    32    23    89    1
    33    24    25    1
    34    24    26    1
    35    24    90    1
    36    25    91    1
    37    25    92    1
    38    25    93    1
    39    26    94    1
    40    26    95    1
    41    26    96    1
    42    27    28   ar
    43    28    29   ar
    44    29    30   ar
    45    29    31    1
    46    30    33    1
    47    31    32    1
    48    32    33    1
    49    32    35    1
    50    34    97    1
    51    34    98    1
    52    34    99    1
    53    35    61    1
    54    36    37    1
    55    36    60    1
    56    37    38    1
    57    38    39    1
    58    39    40    1
    59    40    41    1
    60    41    42    1
    61    45   100    1
    62    47   101    1
    63    47   102    1
    64    47   103    1
    65    48   104    1
    66    49   105    1
    67    49   106    1
    68    49   107    1
    69    50   108    1
    70    51    59    1
    71    52   109    1
    72    52   110    1
    73    52   111    1
    74    53    54    1
    75    54    55    2
    76    54    56    1
    77    56   112    1
    78    56   113    1
    79    56   114    1
    80    57   115    1
    81    57   116    1
    82    57   117    1
    83    58   118    1
    84    58   119    1
    85    58   120    1
    86    59   121    1
    87    59   122    1
    88    59   123    1
    89    60    61    2
    90     1    47    1
    91     1    62    1
    92     2    63    1
    93     3    64    1
    94     4    65    1
    95     5     6    1
    96     7     8    2
    97     9    78    1
    98    15    79    1
    99    18    80    1
   100    18    81    1
   101    19    82    1
   102    19    83    1
   103    20    23    1
   104    21    84    1
   105    21    85    1
   106    22    86    1
   107    22    87    1
   108    27    45    1
   109    28    34    1
   110    32    58    1
   111    33    46    2
   112    36    51    1
   113    36    66    1
   114    37    52    1
   115    37    67    1
   116    38    53    1
   117    38    68    1
   118    42    48    1
   119    42    72    1
   120    43    44    2
   121    60    73    1
   122    61    74    1
   123    39    69    1
   124    39    57    1
   125    40    70    1
   126    40    50    1
   127    41    71    1
   128    41    49    1
