@<TRIPOS>MOLECULE
*****
 123 128 0 0 0
SMALL
GASTEIGER

@<TRIPOS>ATOM
     1 C         -3.175077   -1.188434   -4.286677 C.3        1 UNL1     0.0009
     2 C         -4.638971   -0.648143   -5.287747 C.2        1 UNL1     -0.0787
     3 C         -6.025586   -0.807684   -5.672311 C.2        1 UNL1     -0.0649
     4 C         -6.948568   0.194329   -6.677514 C.2        1 UNL1     -0.0542
     5 C         -8.262086   0.573549   -7.048917 C.2        1 UNL1     0.0115
     6 C         -9.764936   0.210157   -6.898213 C.3        1 UNL1     -0.0348
     7 C         -8.479058   1.958927   -7.830352 C.2        1 UNL1     0.2441
     8 O         -8.673584   2.019112   -9.036612 O.2        1 UNL1     -0.2702
     9 N         -8.690921   3.075159   -7.00253 N.am        1 UNL1     -0.2772
     10 C         -7.489979   3.648711   -6.653103 C.2        1 UNL1     0.1049
     11 C         -6.855496   3.096278   -5.635031 C.2        1 UNL1     0.0801
     12 C         -5.3264   4.460588   -7.610763 C.ar        1 UNL1     0.0753
     13 C         -4.67702   3.672042   -6.608211 C.ar        1 UNL1     0.0305
     14 C         -5.423688   3.069291   -5.50629 C.2        1 UNL1     0.0924
     15 N         -7.283215   2.18935   -4.740009 N.pl3        1 UNL1     -0.3170
     16 C         -6.263739   2.049866   -3.734292 C.3        1 UNL1     0.1275
     17 N         -4.979889   2.399016   -4.446714 N.2        1 UNL1     -0.2557
     18 C         -6.490249   3.152851   -2.704817 C.3        1 UNL1     0.0016
     19 C         -7.911856   3.041329   -2.177382 C.3        1 UNL1     0.0026
     20 N         -8.087671   1.724179   -1.581369 N.3        1 UNL1     -0.3018
     21 C         -7.830925   0.596198   -2.479205 C.3        1 UNL1     0.0026
     22 C         -6.396158   0.725733   -2.993558 C.3        1 UNL1     0.0016
     23 C         -9.297103   1.620421   -0.789439 C.3        1 UNL1     0.0012
     24 C         -10.21507   2.825573   -1.047702 C.3        1 UNL1     -0.0339
     25 C         -10.534671   3.578281   0.254352 C.3        1 UNL1     -0.0615
     26 C         -9.590857   3.742868   -2.084866 C.3        1 UNL1     -0.0615
     27 C         -4.594457   5.130932   -8.588013 C.ar        1 UNL1     0.1347
     28 C         -3.212008   5.120081   -8.640627 C.ar        1 UNL1     0.0342
     29 C         -2.596402   4.297734   -7.673189 C.ar        1 UNL1     0.1435
     30 C         -3.318493   3.591513   -6.71035 C.ar        1 UNL1     0.0774
     31 O         -1.253984   4.268018   -7.524735 O.3        1 UNL1     -0.4436
     32 C         -1.046464   3.73612   -6.207581 C.3        1 UNL1     0.3143
     33 C         -2.30672   2.95602   -5.892286 C.2        1 UNL1     0.2504
     34 C         -2.355282   6.009768   -9.497703 C.3        1 UNL1     -0.0327
     35 O         0.021785   2.78515   -6.29564 O.2        1 UNL1     -0.4528
     36 C         1.748486   2.843791   -2.915825 C.3        1 UNL1     0.0854
     37 C         1.143812   2.579261   -1.483374 C.3        1 UNL1     0.0236
     38 C         1.884949   1.436042   -0.637496 C.3        1 UNL1     0.1131
     39 C         2.145642   0.019609   -1.291734 C.3        1 UNL1     0.0200
     40 C         0.953515   -0.730632   -2.185272 C.3        1 UNL1     0.0661
     41 C         -0.656976   -0.955936   -1.7024 C.3        1 UNL1     0.0091
     42 C         -2.200626   -1.003565   -2.692492 C.3        1 UNL1     0.0661
     43 C         -6.79981   4.613665   -7.521944 C.2        1 UNL1     0.2131
     44 O         -7.413496   5.530585   -8.037099 O.2        1 UNL1     -0.2851
     45 O         -5.305742   5.839381   -9.554248 O.3        1 UNL1     -0.5056
     46 O         -2.440835   2.008992   -5.149989 O.2        1 UNL1     -0.2836
     47 C         -2.567788   -2.48902   -4.877997 C.3        1 UNL1     -0.0566
     48 O         -2.715023   -2.23277   -2.041672 O.3        1 UNL1     -0.3909
     49 C         -0.931983   -0.083304   -0.498084 C.3        1 UNL1     -0.0577
     50 O         0.999301   -0.311077   -3.534198 O.3        1 UNL1     -0.3910
     51 O         2.740457   1.937603   -3.342729 O.3        1 UNL1     -0.3753
     52 C         -0.41045   2.749451   -1.467427 C.3        1 UNL1     -0.0564
     53 O         1.531135   1.443343   0.820958 O.3        1 UNL1     -0.4608
     54 C         2.399905   1.702378   1.848611 C.2        1 UNL1     0.3042
     55 O         3.324383   0.992168   2.242031 O.2        1 UNL1     -0.2512
     56 C         2.186051   3.042114   2.493661 C.3        1 UNL1     0.0332
     57 C         3.629476   0.029807   -1.888649 C.3        1 UNL1     -0.0567
     58 C         -0.959806   4.950556   -5.254079 C.3        1 UNL1     0.0210
     59 C         2.519099   0.581564   -2.95799 C.3        1 UNL1     0.0372
     60 C         0.747916   2.933613   -4.013983 C.2        1 UNL1     -0.0208
     61 C         0.752495   2.394472   -5.23384 C.2        1 UNL1     0.0882
     62 H         -2.602002   -0.354782   -4.71014 H        1 UNL1     0.0365
     63 H         -4.192331   0.146477   -5.889047 H        1 UNL1     0.0576
     64 H         -6.672484   -1.543568   -5.189501 H        1 UNL1     0.0615
     65 H         -6.204915   0.830479   -7.165137 H        1 UNL1     0.0622
     66 H         2.205819   3.840552   -2.842609 H        1 UNL1     0.0645
     67 H         1.409064   3.483959   -0.909159 H        1 UNL1     0.0362
     68 H         2.878906   1.897767   -0.535614 H        1 UNL1     0.0741
     69 H         2.338528   -0.697116   -0.504646 H        1 UNL1     0.0359
     70 H         1.35036   -1.76371   -2.203296 H        1 UNL1     0.0600
     71 H         -0.579798   -1.956096   -1.232633 H        1 UNL1     0.0348
     72 H         -1.380104   -1.188154   -3.401002 H        1 UNL1     0.0602
     73 H         0.000427   3.639339   -3.748541 H        1 UNL1     0.0628
     74 H         1.447875   1.622036   -5.564031 H        1 UNL1     0.1022
     75 H         -9.929428   -0.404964   -5.980824 H        1 UNL1     0.0279
     76 H         -10.452241   1.040069   -6.750139 H        1 UNL1     0.0279
     77 H         -10.117962   -0.473714   -7.683956 H        1 UNL1     0.0279
     78 H         -9.151564   2.781526   -6.143655 H        1 UNL1     0.1553
     79 H         -8.251701   1.995313   -4.563041 H        1 UNL1     0.1484
     80 H         -5.754418   3.046057   -1.898645 H        1 UNL1     0.0317
     81 H         -6.328219   4.141193   -3.148187 H        1 UNL1     0.0317
     82 H         -8.654834   3.220167   -2.968529 H        1 UNL1     0.0428
     83 H         -8.05256   3.838054   -1.446298 H        1 UNL1     0.0428
     84 H         -7.891948   -0.37922   -1.986613 H        1 UNL1     0.0428
     85 H         -8.576983   0.535992   -3.283624 H        1 UNL1     0.0428
     86 H         -6.200441   -0.180097   -3.53684 H        1 UNL1     0.0317
     87 H         -5.691383   0.675795   -2.154574 H        1 UNL1     0.0317
     88 H         -9.826001   0.7071   -1.091774 H        1 UNL1     0.0429
     89 H         -9.066726   1.519914   0.279018 H        1 UNL1     0.0429
     90 H         -11.155717   2.472951   -1.48708 H        1 UNL1     0.0308
     91 H         -10.308962   4.644945   0.162786 H        1 UNL1     0.0233
     92 H         -11.586582   3.456058   0.522966 H        1 UNL1     0.0233
     93 H         -9.955764   3.202646   1.10676 H        1 UNL1     0.0233
     94 H         -10.129221   4.696202   -2.118822 H        1 UNL1     0.0233
     95 H         -8.550563   3.952412   -1.820589 H        1 UNL1     0.0233
     96 H         -9.618345   3.294772   -3.082073 H        1 UNL1     0.0233
     97 H         -1.419263   5.532519   -9.772171 H        1 UNL1     0.0280
     98 H         -2.847488   6.272061   -10.44332 H        1 UNL1     0.0280
     99 H         -2.122495   6.937326   -8.949486 H        1 UNL1     0.0280
     100 H         -6.210791   5.988101   -9.343556 H        1 UNL1     0.2922
     101 H         -2.955791   -2.651998   -5.883257 H        1 UNL1     0.0236
     102 H         -2.711798   -3.358881   -4.238008 H        1 UNL1     0.0236
     103 H         -1.475299   -2.413904   -5.008453 H        1 UNL1     0.0236
     104 H         -3.163247   -1.963866   -1.215987 H        1 UNL1     0.2098
     105 H         -1.271291   0.920954   -0.739224 H        1 UNL1     0.0234
     106 H         -1.584173   -0.532828   0.250584 H        1 UNL1     0.0234
     107 H         0.0   0.0   0.0 H        1 UNL1     0.0234
     108 H         0.643498   0.597801   -3.567553 H        1 UNL1     0.2098
     109 H         -0.900299   2.172358   -2.264122 H        1 UNL1     0.0234
     110 H         -0.861217   2.496617   -0.5017 H        1 UNL1     0.0234
     111 H         -0.704904   3.79432   -1.633238 H        1 UNL1     0.0234
     112 H         3.051152   3.686278   2.309277 H        1 UNL1     0.0342
     113 H         1.266186   3.517111   2.155917 H        1 UNL1     0.0342
     114 H         2.103739   2.891199   3.57884 H        1 UNL1     0.0342
     115 H         4.294497   0.693024   -1.318493 H        1 UNL1     0.0234
     116 H         4.100089   -0.954693   -1.925139 H        1 UNL1     0.0234
     117 H         3.695471   0.476363   -2.895712 H        1 UNL1     0.0234
     118 H         -0.420948   5.798919   -5.711154 H        1 UNL1     0.0309
     119 H         -1.939043   5.294075   -4.905809 H        1 UNL1     0.0309
     120 H         -0.375377   4.736342   -4.352602 H        1 UNL1     0.0309
     121 H         3.244273   -0.034402   -3.489087 H        1 UNL1     0.0524
     122 H         2.675741   0.422164   -1.878132 H        1 UNL1     0.0524
     123 H         1.508623   0.27775   -3.216311 H        1 UNL1     0.0524
@<TRIPOS>BOND
     1     1     2    1
     2     1    42    1
     3     2     3    2
     4     3     4    1
     5     4     5    2
     6     5     7    1
     7     6    75    1
     8     6    76    1
     9     6    77    1
    10     7     9   am
    11     9    10    1
    12    10    11    2
    13    10    43    1
    14    11    14    1
    15    11    15    1
    16    12    13   ar
    17    12    27   ar
    18    12    43    1
    19    13    14    1
    20    13    30   ar
    21    14    17    2
    22    15    16    1
    23    16    17    1
    24    16    18    1
    25    16    22    1
    26    18    19    1
    27    19    20    1
    28    20    21    1
    29    21    22    1
    30    23    24    1
    31    23    88    1
    32    23    89    1
    33    24    25    1
    34    24    26    1
    35    24    90    1
    36    25    91    1
    37    25    92    1
    38    25    93    1
    39    26    94    1
    40    26    95    1
    41    26    96    1
    42    27    28   ar
    43    28    29   ar
    44    29    30   ar
    45    29    31    1
    46    30    33    1
    47    31    32    1
    48    32    33    1
    49    32    35    1
    50    34    97    1
    51    34    98    1
    52    34    99    1
    53    35    61    1
    54    36    37    1
    55    36    60    1
    56    37    38    1
    57    38    39    1
    58    39    40    1
    59    40    41    1
    60    41    42    1
    61    45   100    1
    62    47   101    1
    63    47   102    1
    64    47   103    1
    65    48   104    1
    66    49   105    1
    67    49   106    1
    68    49   107    1
    69    50   108    1
    70    51    59    1
    71    52   109    1
    72    52   110    1
    73    52   111    1
    74    53    54    1
    75    54    55    2
    76    54    56    1
    77    56   112    1
    78    56   113    1
    79    56   114    1
    80    57   115    1
    81    57   116    1
    82    57   117    1
    83    58   118    1
    84    58   119    1
    85    58   120    1
    86    59   121    1
    87    59   122    1
    88    59   123    1
    89    60    61    2
    90     1    47    1
    91     1    62    1
    92     2    63    1
    93     3    64    1
    94     4    65    1
    95     5     6    1
    96     7     8    2
    97     9    78    1
    98    15    79    1
    99    18    80    1
   100    18    81    1
   101    19    82    1
   102    19    83    1
   103    20    23    1
   104    21    84    1
   105    21    85    1
   106    22    86    1
   107    22    87    1
   108    27    45    1
   109    28    34    1
   110    32    58    1
   111    33    46    2
   112    36    51    1
   113    36    66    1
   114    37    52    1
   115    37    67    1
   116    38    53    1
   117    38    68    1
   118    42    48    1
   119    42    72    1
   120    43    44    2
   121    60    73    1
   122    61    74    1
   123    39    69    1
   124    39    57    1
   125    40    70    1
   126    40    50    1
   127    41    71    1
   128    41    49    1
