@<TRIPOS>MOLECULE
*****
 123 128 0 0 0
SMALL
GASTEIGER

@<TRIPOS>ATOM
     1 C         2.14818   5.025658   -0.373944 C.3        1 UNL1     0.0009
     2 C         3.672237   6.020211   -0.727714 C.2        1 UNL1     -0.0787
     3 C         4.801851   6.796452   -0.26138 C.2        1 UNL1     -0.0649
     4 C         6.075432   7.433855   -1.17684 C.2        1 UNL1     -0.0542
     5 C         7.401607   7.930294   -1.133418 C.2        1 UNL1     0.0115
     6 C         8.54431   8.380528   -0.182186 C.3        1 UNL1     -0.0348
     7 C         8.246524   8.009356   -2.496082 C.2        1 UNL1     0.2441
     8 O         8.423715   9.052787   -3.109581 O.2        1 UNL1     -0.2702
     9 N         8.986501   6.852936   -2.798205 N.am        1 UNL1     -0.2772
     10 C         8.2188   5.965799   -3.517195 C.2        1 UNL1     0.1049
     11 C         7.415207   5.188583   -2.814063 C.2        1 UNL1     0.0801
     12 C         6.699591   5.809525   -5.498335 C.ar        1 UNL1     0.0753
     13 C         5.768595   5.150372   -4.633829 C.ar        1 UNL1     0.0305
     14 C         6.151211   4.70209   -3.29678 C.2        1 UNL1     0.0924
     15 N         7.367868   4.968455   -1.488986 N.pl3        1 UNL1     -0.3170
     16 C         6.426565   3.90605   -1.253402 C.3        1 UNL1     0.1275
     17 N         5.458358   3.99623   -2.407598 N.2        1 UNL1     -0.2557
     18 C         7.176667   2.589526   -1.43176 C.3        1 UNL1     0.0016
     19 C         8.376869   2.583319   -0.498451 C.3        1 UNL1     0.0026
     20 N         7.905333   2.736335   0.870953 N.3        1 UNL1     -0.3018
     21 C         7.119106   3.945043   1.126373 C.3        1 UNL1     0.0026
     22 C         5.916327   3.928303   0.181418 C.3        1 UNL1     0.0016
     23 C         8.928421   2.44545   1.855494 C.3        1 UNL1     0.0012
     24 C         9.242489   0.941246   1.877615 C.3        1 UNL1     -0.0339
     25 C         9.597203   0.461599   3.294715 C.3        1 UNL1     -0.0615
     26 C         8.078101   0.15753   1.297297 C.3        1 UNL1     -0.0615
     27 C         6.364813   6.125376   -6.812976 C.ar        1 UNL1     0.1347
     28 C         5.148488   5.797968   -7.385171 C.ar        1 UNL1     0.0342
     29 C         4.230078   5.193267   -6.50085 C.ar        1 UNL1     0.1435
     30 C         4.538633   4.903461   -5.171178 C.ar        1 UNL1     0.0774
     31 O         3.043373   4.715761   -6.935276 O.3        1 UNL1     -0.4436
     32 C         2.628936   3.792992   -5.916643 C.3        1 UNL1     0.3143
     33 C         3.360976   4.23058   -4.664107 C.2        1 UNL1     0.2504
     34 C         4.812666   5.877087   -8.848408 C.3        1 UNL1     -0.0327
     35 O         1.23277   4.015239   -5.683022 O.2        1 UNL1     -0.4528
     36 C         -0.188248   0.664613   -4.605012 C.3        1 UNL1     0.0854
     37 C         0.239561   -0.257543   -3.399139 C.3        1 UNL1     0.0236
     38 C         -0.945996   -0.645692   -2.3914 C.3        1 UNL1     0.1131
     39 C         -1.870568   0.489511   -1.792443 C.3        1 UNL1     0.0200
     40 C         -1.20595   1.91511   -1.237115 C.3        1 UNL1     0.0661
     41 C         0.103798   2.050544   -0.167617 C.3        1 UNL1     0.0091
     42 C         1.413814   3.329037   -0.046312 C.3        1 UNL1     0.0661
     43 C         8.064922   6.065496   -4.976214 C.2        1 UNL1     0.2131
     44 O         9.035655   6.244236   -5.689283 O.2        1 UNL1     -0.2851
     45 O         7.311967   6.807733   -7.573717 O.3        1 UNL1     -0.5056
     46 O         3.034452   4.077851   -3.508291 O.2        1 UNL1     -0.2836
     47 C         0.977345   5.959785   0.034143 C.3        1 UNL1     -0.0566
     48 O         1.282152   3.487474   1.422252 O.3        1 UNL1     -0.3909
     49 C         0.788268   0.706019   -0.061559 C.3        1 UNL1     -0.0577
     50 O         -1.068106   2.847524   -2.290361 O.3        1 UNL1     -0.3910
     51 O         -1.502236   1.172991   -4.555824 O.3        1 UNL1     -0.3753
     52 C         1.682594   0.074076   -2.896511 C.3        1 UNL1     -0.0564
     53 O         -0.605961   -1.783692   -1.473981 O.3        1 UNL1     -0.4608
     54 C         -0.98809   -1.888926   -0.162175 C.2        1 UNL1     0.3042
     55 O         -1.967463   -2.484518   0.284968 O.2        1 UNL1     -0.2512
     56 C         -0.036703   -1.230569   0.796023 C.3        1 UNL1     0.0332
     57 C         -3.175472   0.584189   -2.712463 C.3        1 UNL1     -0.0567
     58 C         3.157361   2.403771   -6.34368 C.3        1 UNL1     0.0210
     59 C         -2.406598   0.588221   -5.491793 C.3        1 UNL1     0.0372
     60 C         0.710812   1.822825   -4.86074 C.2        1 UNL1     -0.0208
     61 C         0.423901   3.100194   -5.11521 C.2        1 UNL1     0.0882
     62 H         2.041544   4.841959   -1.44986 H        1 UNL1     0.0365
     63 H         3.654149   6.039111   -1.819403 H        1 UNL1     0.0576
     64 H         5.021435   6.905035   0.803092 H        1 UNL1     0.0615
     65 H         5.722879   7.349012   -2.208339 H        1 UNL1     0.0622
     66 H         -0.105637   0.017906   -5.48988 H        1 UNL1     0.0645
     67 H         0.455034   -1.232273   -3.870341 H        1 UNL1     0.0362
     68 H         -1.591092   -1.215822   -3.077201 H        1 UNL1     0.0741
     69 H         -2.371236   0.103499   -0.914528 H        1 UNL1     0.0359
     70 H         -2.052793   2.299166   -0.636766 H        1 UNL1     0.0600
     71 H         -0.438359   2.094794   0.797301 H        1 UNL1     0.0348
     72 H         0.593373   3.788659   -0.616346 H        1 UNL1     0.0602
     73 H         1.710973   1.476655   -4.944966 H        1 UNL1     0.0628
     74 H         -0.564068   3.546023   -4.995248 H        1 UNL1     0.1022
     75 H         8.152291   9.073228   0.60109 H        1 UNL1     0.0279
     76 H         9.017818   7.600896   0.410296 H        1 UNL1     0.0279
     77 H         9.287981   9.017833   -0.682681 H        1 UNL1     0.0279
     78 H         9.263633   6.38911   -1.935569 H        1 UNL1     0.1553
     79 H         8.125127   5.172664   -0.863054 H        1 UNL1     0.1484
     80 H         6.495778   1.757778   -1.214156 H        1 UNL1     0.0317
     81 H         7.50421   2.463247   -2.469268 H        1 UNL1     0.0317
     82 H         9.099098   3.371067   -0.758742 H        1 UNL1     0.0428
     83 H         8.898408   1.636689   -0.643156 H        1 UNL1     0.0428
     84 H         6.710296   3.996273   2.140306 H        1 UNL1     0.0428
     85 H         7.728292   4.85521   1.03802 H        1 UNL1     0.0428
     86 H         5.29737   4.751794   0.485955 H        1 UNL1     0.0317
     87 H         5.290697   3.051071   0.386714 H        1 UNL1     0.0317
     88 H         9.83945   2.988562   1.572036 H        1 UNL1     0.0429
     89 H         8.637021   2.803814   2.851203 H        1 UNL1     0.0429
     90 H         10.095555   0.742692   1.218019 H        1 UNL1     0.0308
     91 H         10.680106   0.447259   3.450334 H        1 UNL1     0.0233
     92 H         9.13523   1.104953   4.047235 H        1 UNL1     0.0233
     93 H         9.233519   -0.553454   3.495304 H        1 UNL1     0.0233
     94 H         8.287487   -0.916811   1.339546 H        1 UNL1     0.0233
     95 H         7.172386   0.347636   1.879966 H        1 UNL1     0.0233
     96 H         7.891753   0.432569   0.255377 H        1 UNL1     0.0233
     97 H         4.509548   4.914557   -9.249513 H        1 UNL1     0.0280
     98 H         3.976786   6.561198   -9.044757 H        1 UNL1     0.0280
     99 H         5.694777   6.223713   -9.41128 H        1 UNL1     0.0280
     100 H         7.682777   7.562821   -7.15186 H        1 UNL1     0.2922
     101 H         0.276036   6.053868   -0.794694 H        1 UNL1     0.0236
     102 H         1.310828   6.93035   0.399897 H        1 UNL1     0.0236
     103 H         0.379892   5.53847   0.859817 H        1 UNL1     0.0236
     104 H         2.059418   3.063196   1.835551 H        1 UNL1     0.2098
     105 H         1.401954   0.445503   -0.92024 H        1 UNL1     0.0234
     106 H         1.345431   0.550282   0.862153 H        1 UNL1     0.0234
     107 H         0.0   0.0   0.0 H        1 UNL1     0.0234
     108 H         -0.485448   3.562874   -1.970122 H        1 UNL1     0.2098
     109 H         2.439922   -0.074112   -3.678947 H        1 UNL1     0.0234
     110 H         1.773409   1.085291   -2.485486 H        1 UNL1     0.0234
     111 H         1.981818   -0.578812   -2.06576 H        1 UNL1     0.0234
     112 H         0.142714   -1.88738   1.652618 H        1 UNL1     0.0342
     113 H         0.899578   -0.950178   0.315813 H        1 UNL1     0.0342
     114 H         -0.507648   -0.3109   1.169633 H        1 UNL1     0.0342
     115 H         -4.075646   0.246842   -2.180418 H        1 UNL1     0.0234
     116 H         -3.376773   1.586561   -3.095577 H        1 UNL1     0.0234
     117 H         -3.161099   -0.111324   -3.569199 H        1 UNL1     0.0234
     118 H         2.340912   1.724252   -6.644796 H        1 UNL1     0.0309
     119 H         3.896686   2.454383   -7.149309 H        1 UNL1     0.0309
     120 H         3.641958   1.867183   -5.52067 H        1 UNL1     0.0309
     121 H         -2.526809   1.289981   -6.316681 H        1 UNL1     0.0524
     122 H         -2.021207   -0.355532   -5.912317 H        1 UNL1     0.0524
     123 H         -3.365859   0.397756   -5.01889 H        1 UNL1     0.0524
@<TRIPOS>BOND
     1     1     2    1
     2     1    42    1
     3     2     3    2
     4     3     4    1
     5     4     5    2
     6     5     7    1
     7     6    75    1
     8     6    76    1
     9     6    77    1
    10     7     9   am
    11     9    10    1
    12    10    11    2
    13    10    43    1
    14    11    14    1
    15    11    15    1
    16    12    13   ar
    17    12    27   ar
    18    12    43    1
    19    13    14    1
    20    13    30   ar
    21    14    17    2
    22    15    16    1
    23    16    17    1
    24    16    18    1
    25    16    22    1
    26    18    19    1
    27    19    20    1
    28    20    21    1
    29    21    22    1
    30    23    24    1
    31    23    88    1
    32    23    89    1
    33    24    25    1
    34    24    26    1
    35    24    90    1
    36    25    91    1
    37    25    92    1
    38    25    93    1
    39    26    94    1
    40    26    95    1
    41    26    96    1
    42    27    28   ar
    43    28    29   ar
    44    29    30   ar
    45    29    31    1
    46    30    33    1
    47    31    32    1
    48    32    33    1
    49    32    35    1
    50    34    97    1
    51    34    98    1
    52    34    99    1
    53    35    61    1
    54    36    37    1
    55    36    60    1
    56    37    38    1
    57    38    39    1
    58    39    40    1
    59    40    41    1
    60    41    42    1
    61    45   100    1
    62    47   101    1
    63    47   102    1
    64    47   103    1
    65    48   104    1
    66    49   105    1
    67    49   106    1
    68    49   107    1
    69    50   108    1
    70    51    59    1
    71    52   109    1
    72    52   110    1
    73    52   111    1
    74    53    54    1
    75    54    55    2
    76    54    56    1
    77    56   112    1
    78    56   113    1
    79    56   114    1
    80    57   115    1
    81    57   116    1
    82    57   117    1
    83    58   118    1
    84    58   119    1
    85    58   120    1
    86    59   121    1
    87    59   122    1
    88    59   123    1
    89    60    61    2
    90     1    47    1
    91     1    62    1
    92     2    63    1
    93     3    64    1
    94     4    65    1
    95     5     6    1
    96     7     8    2
    97     9    78    1
    98    15    79    1
    99    18    80    1
   100    18    81    1
   101    19    82    1
   102    19    83    1
   103    20    23    1
   104    21    84    1
   105    21    85    1
   106    22    86    1
   107    22    87    1
   108    27    45    1
   109    28    34    1
   110    32    58    1
   111    33    46    2
   112    36    51    1
   113    36    66    1
   114    37    52    1
   115    37    67    1
   116    38    53    1
   117    38    68    1
   118    42    48    1
   119    42    72    1
   120    43    44    2
   121    60    73    1
   122    61    74    1
   123    39    69    1
   124    39    57    1
   125    40    70    1
   126    40    50    1
   127    41    71    1
   128    41    49    1
