@<TRIPOS>MOLECULE
*****
 123 128 0 0 0
SMALL
GASTEIGER

@<TRIPOS>ATOM
     1 C         5.313809   1.142516   0.50214 C.3        1 UNL1     0.0009
     2 C         6.879076   1.61202   -0.373384 C.2        1 UNL1     -0.0787
     3 C         8.141505   1.239103   -0.976087 C.2        1 UNL1     -0.0649
     4 C         9.222504   2.2287   -1.823728 C.2        1 UNL1     -0.0542
     5 C         10.295406   2.250798   -2.748645 C.2        1 UNL1     0.0115
     6 C         11.32498   1.362939   -3.500313 C.3        1 UNL1     -0.0348
     7 C         10.641873   3.624335   -3.503858 C.2        1 UNL1     0.2441
     8 O         11.579961   4.341354   -3.183857 O.2        1 UNL1     -0.2702
     9 N         9.95911   3.817692   -4.717364 N.am        1 UNL1     -0.2772
     10 C         8.74973   4.435103   -4.494823 C.2        1 UNL1     0.1049
     11 C         7.752115   3.648247   -4.134482 C.2        1 UNL1     0.0801
     12 C         7.699875   6.372663   -3.311183 C.ar        1 UNL1     0.0753
     13 C         6.759324   5.435595   -2.776509 C.ar        1 UNL1     0.0305
     14 C         6.676597   4.064928   -3.275987 C.2        1 UNL1     0.0924
     15 N         7.661297   2.307316   -4.14805 N.pl3        1 UNL1     -0.3170
     16 C         6.305067   1.955426   -3.820837 C.3        1 UNL1     0.1275
     17 N         5.811736   3.10142   -2.971693 N.2        1 UNL1     -0.2557
     18 C         5.499019   2.009722   -5.11507 C.3        1 UNL1     0.0016
     19 C         6.156159   1.094623   -6.136026 C.3        1 UNL1     0.0026
     20 N         6.191802   -0.257984   -5.597311 N.3        1 UNL1     -0.3018
     21 C         6.893659   -0.400177   -4.319991 C.3        1 UNL1     0.0026
     22 C         6.214171   0.524178   -3.308182 C.3        1 UNL1     0.0016
     23 C         6.520419   -1.254661   -6.596956 C.3        1 UNL1     0.0012
     24 C         5.360145   -1.424134   -7.590333 C.3        1 UNL1     -0.0339
     25 C         5.612603   -0.640517   -8.888896 C.3        1 UNL1     -0.0615
     26 C         5.120711   -2.898626   -7.864788 C.3        1 UNL1     -0.0615
     27 C         7.69206   7.708325   -2.916132 C.ar        1 UNL1     0.1347
     28 C         6.769845   8.230528   -2.026822 C.ar        1 UNL1     0.0342
     29 C         5.884699   7.279352   -1.476419 C.ar        1 UNL1     0.1435
     30 C         5.90408   5.931039   -1.835441 C.ar        1 UNL1     0.0774
     31 O         4.858585   7.649794   -0.679632 O.3        1 UNL1     -0.4436
     32 C         3.949987   6.539021   -0.718445 C.3        1 UNL1     0.3143
     33 C         4.799889   5.345315   -1.104377 C.2        1 UNL1     0.2504
     34 C         6.541042   9.690291   -1.749616 C.3        1 UNL1     -0.0327
     35 O         3.496626   6.312502   0.621855 O.2        1 UNL1     -0.4528
     36 C         -0.007547   4.887533   0.308281 C.3        1 UNL1     0.0854
     37 C         -0.494415   3.600409   -0.4623 C.3        1 UNL1     0.0236
     38 C         -1.307079   2.545016   0.43071 C.3        1 UNL1     0.1131
     39 C         -0.703535   2.05205   1.807296 C.3        1 UNL1     0.0200
     40 C         0.911021   1.650223   1.926381 C.3        1 UNL1     0.0661
     41 C         1.757009   0.615108   0.882134 C.3        1 UNL1     0.0091
     42 C         3.511918   0.63791   0.348114 C.3        1 UNL1     0.0661
     43 C         8.626482   5.894864   -4.367293 C.2        1 UNL1     0.2131
     44 O         9.181008   6.633585   -5.160721 O.2        1 UNL1     -0.2851
     45 O         8.670311   8.544672   -3.449973 O.3        1 UNL1     -0.5056
     46 O         4.618243   4.176264   -0.847124 O.2        1 UNL1     -0.2836
     47 C         5.605995   0.816408   1.991523 C.3        1 UNL1     -0.0566
     48 O         3.724466   -0.808822   0.594902 O.3        1 UNL1     -0.3909
     49 C         0.921678   0.382865   -0.357132 C.3        1 UNL1     -0.0577
     50 O         1.69223   2.793157   2.211227 O.3        1 UNL1     -0.3910
     51 O         -0.189081   4.874144   1.706242 O.3        1 UNL1     -0.3753
     52 C         0.533624   3.150496   -1.551181 C.3        1 UNL1     -0.0564
     53 O         -2.051362   1.522213   -0.376906 O.3        1 UNL1     -0.4608
     54 C         -2.501024   0.314589   0.089333 C.2        1 UNL1     0.3042
     55 O         -2.092281   -0.80419   -0.21905 O.2        1 UNL1     -0.2512
     56 C         -3.575796   0.434884   1.131978 C.3        1 UNL1     0.0332
     57 C         -1.332409   2.961568   2.962921 C.3        1 UNL1     -0.0567
     58 C         2.950988   6.830843   -1.862285 C.3        1 UNL1     0.0210
     59 C         -0.322413   6.162058   2.305714 C.3        1 UNL1     0.0372
     60 C         1.410159   5.268571   0.063166 C.2        1 UNL1     -0.0208
     61 C         2.363546   5.646399   0.915835 C.2        1 UNL1     0.0882
     62 H         5.001736   2.19328   0.467249 H        1 UNL1     0.0365
     63 H         6.784767   2.69982   -0.38975 H        1 UNL1     0.0576
     64 H         8.441091   0.193521   -1.07665 H        1 UNL1     0.0615
     65 H         8.882991   3.2423   -1.593881 H        1 UNL1     0.0622
     66 H         -0.61509   5.704039   -0.106756 H        1 UNL1     0.0645
     67 H         -1.285832   3.974043   -1.135068 H        1 UNL1     0.0362
     68 H         -2.177954   3.162616   0.69842 H        1 UNL1     0.0741
     69 H         -1.198222   1.134061   2.095373 H        1 UNL1     0.0359
     70 H         0.896456   1.081502   2.875804 H        1 UNL1     0.0600
     71 H         1.626048   -0.346804   1.415548 H        1 UNL1     0.0348
     72 H         3.466455   1.241482   1.266237 H        1 UNL1     0.0602
     73 H         1.579555   5.329397   -0.983186 H        1 UNL1     0.0628
     74 H         2.290306   5.560151   2.000471 H        1 UNL1     0.1022
     75 H         11.168421   0.285452   -3.252231 H        1 UNL1     0.0279
     76 H         11.265292   1.364343   -4.586363 H        1 UNL1     0.0279
     77 H         12.356078   1.518354   -3.150478 H        1 UNL1     0.0279
     78 H         9.767878   2.916221   -5.149636 H        1 UNL1     0.1553
     79 H         8.261004   1.713922   -4.691343 H        1 UNL1     0.1484
     80 H         4.467205   1.701888   -4.906832 H        1 UNL1     0.0317
     81 H         5.448744   3.033117   -5.502092 H        1 UNL1     0.0317
     82 H         7.165396   1.441   -6.403186 H        1 UNL1     0.0428
     83 H         5.566503   1.14983   -7.051618 H        1 UNL1     0.0428
     84 H         6.837287   -1.408593   -3.89841 H        1 UNL1     0.0428
     85 H         7.971632   -0.213916   -4.422939 H        1 UNL1     0.0428
     86 H         6.664629   0.296472   -2.359907 H        1 UNL1     0.0317
     87 H         5.167997   0.224679   -3.170641 H        1 UNL1     0.0317
     88 H         7.404258   -0.907353   -7.147864 H        1 UNL1     0.0429
     89 H         6.787014   -2.212677   -6.132298 H        1 UNL1     0.0429
     90 H         4.436907   -1.051136   -7.131293 H        1 UNL1     0.0308
     91 H         6.549315   -0.948088   -9.363315 H        1 UNL1     0.0233
     92 H         4.789795   -0.784423   -9.593087 H        1 UNL1     0.0233
     93 H         5.682811   0.440455   -8.717417 H        1 UNL1     0.0233
     94 H         4.432229   -3.018888   -8.708213 H        1 UNL1     0.0233
     95 H         6.063134   -3.38781   -8.126514 H        1 UNL1     0.0233
     96 H         4.691615   -3.402082   -6.99394 H        1 UNL1     0.0233
     97 H         5.729122   9.849075   -1.046193 H        1 UNL1     0.0280
     98 H         7.422462   10.17011   -1.304501 H        1 UNL1     0.0280
     99 H         6.290744   10.209551   -2.689199 H        1 UNL1     0.0280
     100 H         8.337655   9.320416   -3.866127 H        1 UNL1     0.2922
     101 H         4.672914   0.595548   2.509439 H        1 UNL1     0.0236
     102 H         6.179725   1.593244   2.495848 H        1 UNL1     0.0236
     103 H         6.211816   -0.098199   2.104073 H        1 UNL1     0.0236
     104 H         4.094555   -0.90335   1.494384 H        1 UNL1     0.2098
     105 H         0.708847   1.281786   -0.930241 H        1 UNL1     0.0234
     106 H         1.290223   -0.405267   -1.0136 H        1 UNL1     0.0234
     107 H         0.0   -0.0   0.0 H        1 UNL1     0.0234
     108 H         1.631254   3.386341   1.437803 H        1 UNL1     0.2098
     109 H         1.522057   2.930265   -1.124321 H        1 UNL1     0.0234
     110 H         0.18952   2.293352   -2.139943 H        1 UNL1     0.0234
     111 H         0.70134   3.937003   -2.298995 H        1 UNL1     0.0234
     112 H         -3.874063   -0.560279   1.475538 H        1 UNL1     0.0342
     113 H         -3.267102   1.060605   1.968055 H        1 UNL1     0.0342
     114 H         -4.452378   0.907787   0.668156 H        1 UNL1     0.0342
     115 H         -2.428663   2.891852   2.986469 H        1 UNL1     0.0234
     116 H         -0.966675   2.72352   3.963731 H        1 UNL1     0.0234
     117 H         -1.1912   4.043471   2.797127 H        1 UNL1     0.0234
     118 H         2.131506   7.495648   -1.537494 H        1 UNL1     0.0309
     119 H         3.427599   7.257506   -2.750543 H        1 UNL1     0.0309
     120 H         2.426605   5.931061   -2.202171 H        1 UNL1     0.0309
     121 H         0.617949   6.692776   2.159381 H        1 UNL1     0.0524
     122 H         -1.118977   6.762124   1.835134 H        1 UNL1     0.0524
     123 H         -0.535663   6.062731   3.366257 H        1 UNL1     0.0524
@<TRIPOS>BOND
     1     1     2    1
     2     1    42    1
     3     2     3    2
     4     3     4    1
     5     4     5    2
     6     5     7    1
     7     6    75    1
     8     6    76    1
     9     6    77    1
    10     7     9   am
    11     9    10    1
    12    10    11    2
    13    10    43    1
    14    11    14    1
    15    11    15    1
    16    12    13   ar
    17    12    27   ar
    18    12    43    1
    19    13    14    1
    20    13    30   ar
    21    14    17    2
    22    15    16    1
    23    16    17    1
    24    16    18    1
    25    16    22    1
    26    18    19    1
    27    19    20    1
    28    20    21    1
    29    21    22    1
    30    23    24    1
    31    23    88    1
    32    23    89    1
    33    24    25    1
    34    24    26    1
    35    24    90    1
    36    25    91    1
    37    25    92    1
    38    25    93    1
    39    26    94    1
    40    26    95    1
    41    26    96    1
    42    27    28   ar
    43    28    29   ar
    44    29    30   ar
    45    29    31    1
    46    30    33    1
    47    31    32    1
    48    32    33    1
    49    32    35    1
    50    34    97    1
    51    34    98    1
    52    34    99    1
    53    35    61    1
    54    36    37    1
    55    36    60    1
    56    37    38    1
    57    38    39    1
    58    39    40    1
    59    40    41    1
    60    41    42    1
    61    45   100    1
    62    47   101    1
    63    47   102    1
    64    47   103    1
    65    48   104    1
    66    49   105    1
    67    49   106    1
    68    49   107    1
    69    50   108    1
    70    51    59    1
    71    52   109    1
    72    52   110    1
    73    52   111    1
    74    53    54    1
    75    54    55    2
    76    54    56    1
    77    56   112    1
    78    56   113    1
    79    56   114    1
    80    57   115    1
    81    57   116    1
    82    57   117    1
    83    58   118    1
    84    58   119    1
    85    58   120    1
    86    59   121    1
    87    59   122    1
    88    59   123    1
    89    60    61    2
    90     1    47    1
    91     1    62    1
    92     2    63    1
    93     3    64    1
    94     4    65    1
    95     5     6    1
    96     7     8    2
    97     9    78    1
    98    15    79    1
    99    18    80    1
   100    18    81    1
   101    19    82    1
   102    19    83    1
   103    20    23    1
   104    21    84    1
   105    21    85    1
   106    22    86    1
   107    22    87    1
   108    27    45    1
   109    28    34    1
   110    32    58    1
   111    33    46    2
   112    36    51    1
   113    36    66    1
   114    37    52    1
   115    37    67    1
   116    38    53    1
   117    38    68    1
   118    42    48    1
   119    42    72    1
   120    43    44    2
   121    60    73    1
   122    61    74    1
   123    39    69    1
   124    39    57    1
   125    40    70    1
   126    40    50    1
   127    41    71    1
   128    41    49    1
