@<TRIPOS>MOLECULE
*****
 123 128 0 0 0
SMALL
GASTEIGER

@<TRIPOS>ATOM
     1 C         4.959072   2.324761   -0.048568 C.3        1 UNL1     0.0009
     2 C         6.401305   2.846454   -1.090123 C.2        1 UNL1     -0.0787
     3 C         7.740728   2.613501   -1.587845 C.2        1 UNL1     -0.0649
     4 C         8.587171   3.503272   -2.753263 C.2        1 UNL1     -0.0542
     5 C         9.661526   3.481182   -3.676491 C.2        1 UNL1     0.0115
     6 C         10.905185   2.672807   -4.138191 C.3        1 UNL1     -0.0348
     7 C         9.699463   4.575233   -4.85063 C.2        1 UNL1     0.2441
     8 O         10.423335   5.560884   -4.818594 O.2        1 UNL1     -0.2702
     9 N         9.042296   4.193162   -6.033129 N.am        1 UNL1     -0.2772
     10 C         7.711677   4.538903   -5.97622 C.2        1 UNL1     0.1049
     11 C         6.91803   3.696212   -5.34044 C.2        1 UNL1     0.0801
     12 C         6.177803   6.442782   -5.447251 C.ar        1 UNL1     0.0753
     13 C         5.468203   5.533133   -4.60013 C.ar        1 UNL1     0.0305
     14 C         5.738513   4.097349   -4.622662 C.2        1 UNL1     0.0924
     15 N         7.152757   2.443631   -4.913272 N.pl3        1 UNL1     -0.3170
     16 C         5.908215   1.901595   -4.436233 C.3        1 UNL1     0.1275
     17 N         5.11843   3.106858   -3.987563 N.2        1 UNL1     -0.2557
     18 C         5.168329   1.336421   -5.644888 C.3        1 UNL1     0.0016
     19 C         6.068767   0.325909   -6.337468 C.3        1 UNL1     0.0026
     20 N         6.405536   -0.727362   -5.389717 N.3        1 UNL1     -0.3018
     21 C         7.06622   -0.27316   -4.164333 C.3        1 UNL1     0.0026
     22 C         6.142271   0.737461   -3.482526 C.3        1 UNL1     0.0016
     23 C         7.006083   -1.884662   -6.022682 C.3        1 UNL1     0.0012
     24 C         5.963699   -2.641978   -6.860337 C.3        1 UNL1     -0.0339
     25 C         6.097895   -2.313197   -8.356316 C.3        1 UNL1     -0.0615
     26 C         6.074524   -4.134886   -6.60397 C.3        1 UNL1     -0.0615
     27 C         5.832524   7.790803   -5.50842 C.ar        1 UNL1     0.1347
     28 C         4.775013   8.335377   -4.801907 C.ar        1 UNL1     0.0342
     29 C         4.121867   7.431281   -3.937515 C.ar        1 UNL1     0.1435
     30 C         4.479876   6.086188   -3.838647 C.ar        1 UNL1     0.0774
     31 O         3.003987   7.78197   -3.264932 O.3        1 UNL1     -0.4436
     32 C         2.391417   6.534734   -2.90433 C.3        1 UNL1     0.3143
     33 C         3.518831   5.522283   -2.913893 C.2        1 UNL1     0.2504
     34 C         4.190598   9.705364   -5.006098 C.3        1 UNL1     -0.0327
     35 O         1.949395   6.654102   -1.54653 O.2        1 UNL1     -0.4528
     36 C         -1.093149   4.405165   -1.241083 C.3        1 UNL1     0.0854
     37 C         -1.223351   2.860333   -1.531016 C.3        1 UNL1     0.0236
     38 C         -1.795682   1.989756   -0.311886 C.3        1 UNL1     0.1131
     39 C         -1.150255   2.131766   1.125308 C.3        1 UNL1     0.0200
     40 C         0.507012   2.191806   1.305035 C.3        1 UNL1     0.0661
     41 C         1.620417   1.109445   0.622077 C.3        1 UNL1     0.0091
     42 C         3.339431   1.379305   0.041069 C.3        1 UNL1     0.0661
     43 C         7.23597   5.885652   -6.325971 C.2        1 UNL1     0.2131
     44 O         7.629842   6.436836   -7.337799 O.2        1 UNL1     -0.2851
     45 O         6.602853   8.617691   -6.323458 O.3        1 UNL1     -0.5056
     46 O         3.612697   4.493054   -2.283234 O.2        1 UNL1     -0.2836
     47 C         5.257677   2.581054   1.453141 C.3        1 UNL1     -0.0566
     48 O         3.882747   0.187656   0.736697 O.3        1 UNL1     -0.3909
     49 C         0.918659   0.293043   -0.44024 C.3        1 UNL1     -0.0577
     50 O         0.97789   3.517756   1.171418 O.3        1 UNL1     -0.3910
     51 O         -1.325219   4.803647   0.091129 O.3        1 UNL1     -0.3753
     52 C         -0.07213   2.342477   -2.453765 C.3        1 UNL1     -0.0564
     53 O         -2.237464   0.61262   -0.712701 O.3        1 UNL1     -0.4608
     54 C         -2.37048   -0.457376   0.133079 C.2        1 UNL1     0.3042
     55 O         -1.598   -1.405958   0.264628 O.2        1 UNL1     -0.2512
     56 C         -3.586097   -0.381414   1.012408 C.3        1 UNL1     0.0332
     57 C         -2.027647   3.187757   1.94582 C.3        1 UNL1     -0.0567
     58 C         1.40096   6.189205   -4.040611 C.3        1 UNL1     0.0210
     59 C         -1.78941   6.144227   0.243564 C.3        1 UNL1     0.0372
     60 C         0.200527   5.015351   -1.652466 C.2        1 UNL1     -0.0208
     61 C         0.998172   5.867648   -1.00741 C.2        1 UNL1     0.0882
     62 H         4.405412   3.199206   -0.411222 H        1 UNL1     0.0365
     63 H         6.049143   3.813231   -1.455901 H        1 UNL1     0.0576
     64 H         8.286773   1.696754   -1.354355 H        1 UNL1     0.0615
     65 H         8.004612   4.423182   -2.852632 H        1 UNL1     0.0622
     66 H         -1.860947   4.87065   -1.875004 H        1 UNL1     0.0645
     67 H         -2.052121   2.792743   -2.257055 H        1 UNL1     0.0362
     68 H         -2.799987   2.431869   -0.225691 H        1 UNL1     0.0741
     69 H         -1.421603   1.266772   1.7157 H        1 UNL1     0.0359
     70 H         0.589318   1.976829   2.387658 H        1 UNL1     0.0600
     71 H         1.701959   0.371625   1.444226 H        1 UNL1     0.0348
     72 H         3.111398   2.218791   0.71381 H        1 UNL1     0.0602
     73 H         0.394527   4.771627   -2.667459 H        1 UNL1     0.0628
     74 H         0.901909   6.123724   0.04824 H        1 UNL1     0.1022
     75 H         10.97319   1.706632   -3.582388 H        1 UNL1     0.0279
     76 H         10.914278   2.347214   -5.175965 H        1 UNL1     0.0279
     77 H         11.853454   3.152865   -3.855294 H        1 UNL1     0.0279
     78 H         9.091786   3.182183   -6.140599 H        1 UNL1     0.1553
     79 H         7.899953   1.86877   -5.257025 H        1 UNL1     0.1484
     80 H         4.232851   0.874122   -5.307357 H        1 UNL1     0.0317
     81 H         4.890052   2.134412   -6.341611 H        1 UNL1     0.0317
     82 H         6.975585   0.798866   -6.742321 H        1 UNL1     0.0428
     83 H         5.522468   -0.063235   -7.197221 H        1 UNL1     0.0428
     84 H         7.236009   -1.0719   -3.435637 H        1 UNL1     0.0428
     85 H         8.071213   0.123302   -4.364642 H        1 UNL1     0.0428
     86 H         6.593648   0.945957   -2.530278 H        1 UNL1     0.0317
     87 H         5.193862   0.256345   -3.213933 H        1 UNL1     0.0317
     88 H         7.803094   -1.533291   -6.690969 H        1 UNL1     0.0429
     89 H         7.47514   -2.545532   -5.282406 H        1 UNL1     0.0429
     90 H         4.958883   -2.354866   -6.528489 H        1 UNL1     0.0308
     91 H         7.142289   -2.35249   -8.680045 H        1 UNL1     0.0233
     92 H         5.509195   -3.008747   -8.959018 H        1 UNL1     0.0233
     93 H         5.727396   -1.309681   -8.598231 H        1 UNL1     0.0233
     94 H         5.55267   -4.692694   -7.389052 H        1 UNL1     0.0233
     95 H         7.12491   -4.439046   -6.615714 H        1 UNL1     0.0233
     96 H         5.638887   -4.407419   -5.638613 H        1 UNL1     0.0233
     97 H         3.292136   9.857257   -4.4154 H        1 UNL1     0.0280
     98 H         4.885479   10.500616   -4.706147 H        1 UNL1     0.0280
     99 H         3.932484   9.841802   -6.069046 H        1 UNL1     0.0280
     100 H         6.106673   9.165427   -6.90605 H        1 UNL1     0.2922
     101 H         4.354307   2.418388   2.040609 H        1 UNL1     0.0236
     102 H         5.697486   3.559814   1.641765 H        1 UNL1     0.0236
     103 H         5.988564   1.861666   1.8587 H        1 UNL1     0.0236
     104 H         4.14318   0.464825   1.636876 H        1 UNL1     0.2098
     105 H         0.691213   0.841496   -1.350888 H        1 UNL1     0.0234
     106 H         1.402157   -0.653813   -0.680286 H        1 UNL1     0.0234
     107 H         0.0   -0.0   0.0 H        1 UNL1     0.0234
     108 H         0.850435   3.778278   0.238867 H        1 UNL1     0.2098
     109 H         0.921259   2.517861   -2.017726 H        1 UNL1     0.0234
     110 H         -0.174912   1.284351   -2.717486 H        1 UNL1     0.0234
     111 H         -0.066792   2.859041   -3.422826 H        1 UNL1     0.0234
     112 H         -3.621203   -1.25164   1.674842 H        1 UNL1     0.0342
     113 H         -3.621657   0.545516   1.582828 H        1 UNL1     0.0342
     114 H         -4.476788   -0.411185   0.369797 H        1 UNL1     0.0342
     115 H         -3.095286   2.928542   1.933877 H        1 UNL1     0.0234
     116 H         -1.728111   3.297733   2.989962 H        1 UNL1     0.0234
     117 H         -2.047167   4.19241   1.489494 H        1 UNL1     0.0234
     118 H         0.431656   6.702992   -3.916198 H        1 UNL1     0.0309
     119 H         1.797105   6.40827   -5.037247 H        1 UNL1     0.0309
     120 H         1.125432   5.128969   -4.050129 H        1 UNL1     0.0309
     121 H         -1.588606   6.447878   1.270614 H        1 UNL1     0.0524
     122 H         -1.260356   6.848181   -0.420204 H        1 UNL1     0.0524
     123 H         -2.854718   6.198753   0.038046 H        1 UNL1     0.0524
@<TRIPOS>BOND
     1     1     2    1
     2     1    42    1
     3     2     3    2
     4     3     4    1
     5     4     5    2
     6     5     7    1
     7     6    75    1
     8     6    76    1
     9     6    77    1
    10     7     9   am
    11     9    10    1
    12    10    11    2
    13    10    43    1
    14    11    14    1
    15    11    15    1
    16    12    13   ar
    17    12    27   ar
    18    12    43    1
    19    13    14    1
    20    13    30   ar
    21    14    17    2
    22    15    16    1
    23    16    17    1
    24    16    18    1
    25    16    22    1
    26    18    19    1
    27    19    20    1
    28    20    21    1
    29    21    22    1
    30    23    24    1
    31    23    88    1
    32    23    89    1
    33    24    25    1
    34    24    26    1
    35    24    90    1
    36    25    91    1
    37    25    92    1
    38    25    93    1
    39    26    94    1
    40    26    95    1
    41    26    96    1
    42    27    28   ar
    43    28    29   ar
    44    29    30   ar
    45    29    31    1
    46    30    33    1
    47    31    32    1
    48    32    33    1
    49    32    35    1
    50    34    97    1
    51    34    98    1
    52    34    99    1
    53    35    61    1
    54    36    37    1
    55    36    60    1
    56    37    38    1
    57    38    39    1
    58    39    40    1
    59    40    41    1
    60    41    42    1
    61    45   100    1
    62    47   101    1
    63    47   102    1
    64    47   103    1
    65    48   104    1
    66    49   105    1
    67    49   106    1
    68    49   107    1
    69    50   108    1
    70    51    59    1
    71    52   109    1
    72    52   110    1
    73    52   111    1
    74    53    54    1
    75    54    55    2
    76    54    56    1
    77    56   112    1
    78    56   113    1
    79    56   114    1
    80    57   115    1
    81    57   116    1
    82    57   117    1
    83    58   118    1
    84    58   119    1
    85    58   120    1
    86    59   121    1
    87    59   122    1
    88    59   123    1
    89    60    61    2
    90     1    47    1
    91     1    62    1
    92     2    63    1
    93     3    64    1
    94     4    65    1
    95     5     6    1
    96     7     8    2
    97     9    78    1
    98    15    79    1
    99    18    80    1
   100    18    81    1
   101    19    82    1
   102    19    83    1
   103    20    23    1
   104    21    84    1
   105    21    85    1
   106    22    86    1
   107    22    87    1
   108    27    45    1
   109    28    34    1
   110    32    58    1
   111    33    46    2
   112    36    51    1
   113    36    66    1
   114    37    52    1
   115    37    67    1
   116    38    53    1
   117    38    68    1
   118    42    48    1
   119    42    72    1
   120    43    44    2
   121    60    73    1
   122    61    74    1
   123    39    69    1
   124    39    57    1
   125    40    70    1
   126    40    50    1
   127    41    71    1
   128    41    49    1
