@<TRIPOS>MOLECULE
*****
 123 128 0 0 0
SMALL
GASTEIGER

@<TRIPOS>ATOM
     1 C         -1.75068   -2.979022   3.983641 C.3        1 UNL1     0.0009
     2 C         -3.244936   -3.949925   4.495095 C.2        1 UNL1     -0.0787
     3 C         -4.372732   -4.145655   5.381556 C.2        1 UNL1     -0.0649
     4 C         -5.60718   -5.297513   5.256186 C.2        1 UNL1     -0.0542
     5 C         -6.924488   -5.635477   5.653121 C.2        1 UNL1     0.0115
     6 C         -8.085475   -5.252153   6.611503 C.3        1 UNL1     -0.0348
     7 C         -7.72813   -6.743946   4.815002 C.2        1 UNL1     0.2441
     8 O         -7.86791   -7.896884   5.199348 O.2        1 UNL1     -0.2702
     9 N         -8.480699   -6.238826   3.740458 N.am        1 UNL1     -0.2772
     10 C         -7.709402   -6.173297   2.60286 C.2        1 UNL1     0.1049
     11 C         -6.94117   -5.105944   2.481206 C.2        1 UNL1     0.0801
     12 C         -6.136913   -7.51336   1.192597 C.ar        1 UNL1     0.0753
     13 C         -5.243786   -6.397354   1.26651 C.ar        1 UNL1     0.0305
     14 C         -5.673153   -5.10797   1.803339 C.2        1 UNL1     0.0924
     15 N         -6.936202   -3.960525   3.184426 N.pl3        1 UNL1     -0.3170
     16 C         -6.022223   -3.054148   2.541482 C.3        1 UNL1     0.1275
     17 N         -5.019618   -3.950847   1.857058 N.2        1 UNL1     -0.2557
     18 C         -6.791491   -2.351044   1.427223 C.3        1 UNL1     0.0016
     19 C         -8.018007   -1.683923   2.02905 C.3        1 UNL1     0.0026
     20 N         -7.583355   -0.735267   3.045002 N.3        1 UNL1     -0.3018
     21 C         -6.782233   -1.308321   4.128598 C.3        1 UNL1     0.0026
     22 C         -5.553238   -1.969093   3.501824 C.3        1 UNL1     0.0016
     23 C         -8.639691   0.163192   3.466393 C.3        1 UNL1     0.0012
     24 C         -8.982114   1.155786   2.344226 C.3        1 UNL1     -0.0339
     25 C         -10.452995   1.032354   1.913725 C.3        1 UNL1     -0.0615
     26 C         -8.643983   2.571007   2.779653 C.3        1 UNL1     -0.0615
     27 C         -5.758491   -8.700641   0.57028 C.ar        1 UNL1     0.1347
     28 C         -4.532545   -8.876091   -0.046424 C.ar        1 UNL1     0.0342
     29 C         -3.651544   -7.781271   0.081528 C.ar        1 UNL1     0.1435
     30 C         -4.003702   -6.598835   0.733487 C.ar        1 UNL1     0.0774
     31 O         -2.461995   -7.7554   -0.558245 O.3        1 UNL1     -0.4436
     32 C         -2.094521   -6.367906   -0.584657 C.3        1 UNL1     0.3143
     33 C         -2.854014   -5.735023   0.563752 C.2        1 UNL1     0.2504
     34 C         -4.153247   -10.020201   -0.944892 C.3        1 UNL1     -0.0327
     35 O         -0.701739   -6.289812   -0.25707 O.2        1 UNL1     -0.4528
     36 C         0.624361   -3.231333   -2.072354 C.3        1 UNL1     0.0854
     37 C         0.1447   -1.731726   -1.979465 C.3        1 UNL1     0.0236
     38 C         1.293202   -0.676694   -1.605843 C.3        1 UNL1     0.1131
     39 C         2.221301   -0.937715   -0.351741 C.3        1 UNL1     0.0200
     40 C         1.567868   -1.476232   1.085431 C.3        1 UNL1     0.0661
     41 C         0.230607   -0.802991   1.882983 C.3        1 UNL1     0.0091
     42 C         -1.058094   -1.594431   2.921383 C.3        1 UNL1     0.0661
     43 C         -7.511675   -7.33392   1.721831 C.2        1 UNL1     0.2131
     44 O         -8.457913   -8.022062   1.384441 O.2        1 UNL1     -0.2851
     45 O         -6.670321   -9.754145   0.581867 O.3        1 UNL1     -0.5056
     46 O         -2.563878   -4.751947   1.208142 O.2        1 UNL1     -0.2836
     47 C         -0.574742   -3.243775   4.961934 C.3        1 UNL1     -0.0566
     48 O         -0.965871   -0.586124   4.004863 O.3        1 UNL1     -0.3909
     49 C         -0.481794   0.135238   0.934454 C.3        1 UNL1     -0.0577
     50 O         1.478002   -2.886727   1.097725 O.3        1 UNL1     -0.3910
     51 O         1.94571   -3.482761   -1.650154 O.3        1 UNL1     -0.3753
     52 C         -1.305734   -1.619239   -1.406284 C.3        1 UNL1     -0.0564
     53 O         0.905523   0.749855   -1.864666 O.3        1 UNL1     -0.4608
     54 C         1.247626   1.821344   -1.081846 C.2        1 UNL1     0.3042
     55 O         0.534022   2.413652   -0.273279 O.2        1 UNL1     -0.2512
     56 C         2.68258   2.240511   -1.229899 C.3        1 UNL1     0.0332
     57 C         3.553737   -1.649251   -0.877579 C.3        1 UNL1     -0.0567
     58 C         -2.63644   -5.797151   -1.915856 C.3        1 UNL1     0.0210
     59 C         2.836868   -3.897152   -2.684554 C.3        1 UNL1     0.0372
     60 C         -0.245019   -4.214283   -1.370107 C.2        1 UNL1     -0.0208
     61 C         0.073076   -5.233977   -0.571494 C.2        1 UNL1     0.0882
     62 H         -1.616541   -3.666476   3.139766 H        1 UNL1     0.0365
     63 H         -3.195028   -4.785134   3.79338 H        1 UNL1     0.0576
     64 H         -4.620834   -3.421432   6.160693 H        1 UNL1     0.0615
     65 H         -5.226691   -6.007898   4.517224 H        1 UNL1     0.0622
     66 H         0.555152   -3.477555   -3.141293 H        1 UNL1     0.0645
     67 H         -0.075385   -1.455385   -3.025293 H        1 UNL1     0.0362
     68 H         1.94697   -0.798164   -2.482971 H        1 UNL1     0.0741
     69 H         2.689103   -0.005358   -0.064896 H        1 UNL1     0.0359
     70 H         2.40412   -1.246346   1.773105 H        1 UNL1     0.0600
     71 H         0.745454   -0.085707   2.551858 H        1 UNL1     0.0348
     72 H         -0.213062   -2.297783   2.898286 H        1 UNL1     0.0602
     73 H         -1.248666   -4.084938   -1.69137 H        1 UNL1     0.0628
     74 H         1.065382   -5.402127   -0.151624 H        1 UNL1     0.1022
     75 H         -7.712093   -5.15188   7.659151 H        1 UNL1     0.0279
     76 H         -8.559311   -4.288514   6.438446 H        1 UNL1     0.0279
     77 H         -8.828463   -6.055543   6.722111 H        1 UNL1     0.0279
     78 H         -8.791258   -5.293492   3.954873 H        1 UNL1     0.1553
     79 H         -7.707219   -3.648114   3.745553 H        1 UNL1     0.1484
     80 H         -6.132917   -1.618341   0.945359 H        1 UNL1     0.0317
     81 H         -7.0913   -3.061979   0.649832 H        1 UNL1     0.0317
     82 H         -8.717493   -2.421382   2.449509 H        1 UNL1     0.0428
     83 H         -8.552862   -1.190172   1.217145 H        1 UNL1     0.0428
     84 H         -6.401936   -0.563189   4.834263 H        1 UNL1     0.0428
     85 H         -7.371399   -1.992505   4.754772 H        1 UNL1     0.0428
     86 H         -4.927945   -2.258226   4.326081 H        1 UNL1     0.0317
     87 H         -4.95039   -1.217736   2.977293 H        1 UNL1     0.0317
     88 H         -9.531917   -0.437741   3.685729 H        1 UNL1     0.0429
     89 H         -8.370597   0.688906   4.391588 H        1 UNL1     0.0429
     90 H         -8.34557   0.949503   1.475622 H        1 UNL1     0.0308
     91 H         -11.068443   0.614212   2.715899 H        1 UNL1     0.0233
     92 H         -10.853994   2.006687   1.624789 H        1 UNL1     0.0233
     93 H         -10.579592   0.378884   1.042068 H        1 UNL1     0.0233
     94 H         -9.483904   3.007414   3.330941 H        1 UNL1     0.0233
     95 H         -7.774588   2.560183   3.442977 H        1 UNL1     0.0233
     96 H         -8.424574   3.211158   1.920564 H        1 UNL1     0.0233
     97 H         -3.095847   -10.258063   -0.877377 H        1 UNL1     0.0280
     98 H         -4.686303   -10.944271   -0.685659 H        1 UNL1     0.0280
     99 H         -4.382711   -9.759618   -1.991093 H        1 UNL1     0.0280
     100 H         -7.038879   -9.943682   1.426772 H        1 UNL1     0.2922
     101 H         0.15196   -3.906489   4.492498 H        1 UNL1     0.0236
     102 H         -0.900306   -3.61591   5.932763 H        1 UNL1     0.0236
     103 H         -0.009548   -2.324323   5.188552 H        1 UNL1     0.0236
     104 H         -0.023458   -0.348897   4.107578 H        1 UNL1     0.2098
     105 H         -1.538492   -0.080783   0.798313 H        1 UNL1     0.0234
     106 H         -0.337081   1.194338   1.147273 H        1 UNL1     0.0234
     107 H         0.0   0.0   0.0 H        1 UNL1     0.0234
     108 H         0.892875   -3.133678   1.839621 H        1 UNL1     0.2098
     109 H         -2.042841   -2.138069   -2.034935 H        1 UNL1     0.0234
     110 H         -1.389335   -1.975336   -0.373836 H        1 UNL1     0.0234
     111 H         -1.641008   -0.574745   -1.355594 H        1 UNL1     0.0234
     112 H         2.894507   3.083526   -0.56525 H        1 UNL1     0.0342
     113 H         3.370826   1.416559   -1.047515 H        1 UNL1     0.0342
     114 H         2.836004   2.579787   -2.26359 H        1 UNL1     0.0342
     115 H         4.43212   -1.361309   -0.283675 H        1 UNL1     0.0234
     116 H         3.502867   -2.739869   -0.88104 H        1 UNL1     0.0234
     117 H         3.860309   -1.319419   -1.885134 H        1 UNL1     0.0234
     118 H         -1.824568   -5.550897   -2.622418 H        1 UNL1     0.0309
     119 H         -3.351148   -6.463209   -2.409578 H        1 UNL1     0.0309
     120 H         -3.154567   -4.841072   -1.783334 H        1 UNL1     0.0309
     121 H         3.638877   -4.469434   -2.219116 H        1 UNL1     0.0524
     122 H         2.345516   -4.553454   -3.422034 H        1 UNL1     0.0524
     123 H         3.243998   -3.031361   -3.199088 H        1 UNL1     0.0524
@<TRIPOS>BOND
     1     1     2    1
     2     1    42    1
     3     2     3    2
     4     3     4    1
     5     4     5    2
     6     5     7    1
     7     6    75    1
     8     6    76    1
     9     6    77    1
    10     7     9   am
    11     9    10    1
    12    10    11    2
    13    10    43    1
    14    11    14    1
    15    11    15    1
    16    12    13   ar
    17    12    27   ar
    18    12    43    1
    19    13    14    1
    20    13    30   ar
    21    14    17    2
    22    15    16    1
    23    16    17    1
    24    16    18    1
    25    16    22    1
    26    18    19    1
    27    19    20    1
    28    20    21    1
    29    21    22    1
    30    23    24    1
    31    23    88    1
    32    23    89    1
    33    24    25    1
    34    24    26    1
    35    24    90    1
    36    25    91    1
    37    25    92    1
    38    25    93    1
    39    26    94    1
    40    26    95    1
    41    26    96    1
    42    27    28   ar
    43    28    29   ar
    44    29    30   ar
    45    29    31    1
    46    30    33    1
    47    31    32    1
    48    32    33    1
    49    32    35    1
    50    34    97    1
    51    34    98    1
    52    34    99    1
    53    35    61    1
    54    36    37    1
    55    36    60    1
    56    37    38    1
    57    38    39    1
    58    39    40    1
    59    40    41    1
    60    41    42    1
    61    45   100    1
    62    47   101    1
    63    47   102    1
    64    47   103    1
    65    48   104    1
    66    49   105    1
    67    49   106    1
    68    49   107    1
    69    50   108    1
    70    51    59    1
    71    52   109    1
    72    52   110    1
    73    52   111    1
    74    53    54    1
    75    54    55    2
    76    54    56    1
    77    56   112    1
    78    56   113    1
    79    56   114    1
    80    57   115    1
    81    57   116    1
    82    57   117    1
    83    58   118    1
    84    58   119    1
    85    58   120    1
    86    59   121    1
    87    59   122    1
    88    59   123    1
    89    60    61    2
    90     1    47    1
    91     1    62    1
    92     2    63    1
    93     3    64    1
    94     4    65    1
    95     5     6    1
    96     7     8    2
    97     9    78    1
    98    15    79    1
    99    18    80    1
   100    18    81    1
   101    19    82    1
   102    19    83    1
   103    20    23    1
   104    21    84    1
   105    21    85    1
   106    22    86    1
   107    22    87    1
   108    27    45    1
   109    28    34    1
   110    32    58    1
   111    33    46    2
   112    36    51    1
   113    36    66    1
   114    37    52    1
   115    37    67    1
   116    38    53    1
   117    38    68    1
   118    42    48    1
   119    42    72    1
   120    43    44    2
   121    60    73    1
   122    61    74    1
   123    39    69    1
   124    39    57    1
   125    40    70    1
   126    40    50    1
   127    41    71    1
   128    41    49    1
