@<TRIPOS>MOLECULE
*****
 123 128 0 0 0
SMALL
GASTEIGER

@<TRIPOS>ATOM
     1 C         -4.444828   -1.555165   -2.474246 C.3        1 UNL1     0.0009
     2 C         -6.250298   -1.215056   -2.722528 C.2        1 UNL1     -0.0787
     3 C         -7.62993   -1.402305   -2.325541 C.2        1 UNL1     -0.0649
     4 C         -9.005789   -0.640949   -2.953001 C.2        1 UNL1     -0.0542
     5 C         -10.36082   -0.306954   -2.709243 C.2        1 UNL1     0.0115
     6 C         -11.564203   -0.553116   -1.758141 C.3        1 UNL1     -0.0348
     7 C         -11.046081   0.849021   -3.587382 C.2        1 UNL1     0.2441
     8 O         -11.8067   0.616181   -4.516774 O.2        1 UNL1     -0.2702
     9 N         -10.921998   2.144408   -3.055662 N.am        1 UNL1     -0.2772
     10 C         -9.755824   2.731897   -3.489503 C.2        1 UNL1     0.1049
     11 C         -8.662525   2.421781   -2.816638 C.2        1 UNL1     0.0801
     12 C         -8.40773   3.1815   -5.548103 C.ar        1 UNL1     0.0753
     13 C         -7.28913   2.638401   -4.839311 C.ar        1 UNL1     0.0305
     14 C         -7.352222   2.362914   -3.405722 C.2        1 UNL1     0.0924
     15 N         -8.523131   1.786126   -1.640611 N.pl3        1 UNL1     -0.3170
     16 C         -7.135736   1.855075   -1.265599 C.3        1 UNL1     0.1275
     17 N         -6.394689   1.957721   -2.576338 N.2        1 UNL1     -0.2557
     18 C         -6.925258   3.188437   -0.554582 C.3        1 UNL1     0.0016
     19 C         -7.896064   3.275952   0.612236 C.3        1 UNL1     0.0026
     20 N         -7.648344   2.15766   1.511729 N.3        1 UNL1     -0.3018
     21 C         -7.766429   0.831471   0.902101 C.3        1 UNL1     0.0026
     22 C         -6.779333   0.764042   -0.264514 C.3        1 UNL1     0.0016
     23 C         -8.306679   2.308842   2.794064 C.3        1 UNL1     0.0012
     24 C         -8.674766   0.934872   3.375849 C.3        1 UNL1     -0.0339
     25 C         -8.297867   0.834651   4.863115 C.3        1 UNL1     -0.0615
     26 C         -10.150519   0.653351   3.152962 C.3        1 UNL1     -0.0615
     27 C         -8.302539   3.554045   -6.88611 C.ar        1 UNL1     0.1347
     28 C         -7.124684   3.467939   -7.606731 C.ar        1 UNL1     0.0342
     29 C         -6.049683   2.884934   -6.902714 C.ar        1 UNL1     0.1435
     30 C         -6.150288   2.473647   -5.573074 C.ar        1 UNL1     0.0774
     31 O         -4.807324   2.832369   -7.430718 O.3        1 UNL1     -0.4436
     32 C         -3.941768   2.635785   -6.302428 C.3        1 UNL1     0.3143
     33 C         -4.819029   2.016381   -5.233332 C.2        1 UNL1     0.2504
     34 C         -6.871011   4.07694   -8.957608 C.3        1 UNL1     -0.0327
     35 O         -2.975264   1.645465   -6.674434 O.2        1 UNL1     -0.4528
     36 C         0.164627   2.464313   -4.705001 C.3        1 UNL1     0.0854
     37 C         0.357224   2.591818   -3.144818 C.3        1 UNL1     0.0236
     38 C         1.509356   1.662455   -2.527873 C.3        1 UNL1     0.1131
     39 C         1.537408   0.117553   -2.866634 C.3        1 UNL1     0.0200
     40 C         0.129302   -0.776554   -2.850892 C.3        1 UNL1     0.0661
     41 C         -1.017884   -0.801664   -1.601514 C.3        1 UNL1     0.0091
     42 C         -2.837873   -1.024062   -1.661361 C.3        1 UNL1     0.0661
     43 C         -9.659088   3.418332   -4.786347 C.2        1 UNL1     0.2131
     44 O         -10.520538   4.205189   -5.134911 O.2        1 UNL1     -0.2851
     45 O         -9.450588   4.031475   -7.514985 O.3        1 UNL1     -0.5056
     46 O         -4.495105   1.290681   -4.31994 O.2        1 UNL1     -0.2836
     47 C         -4.094465   -2.988015   -2.958156 C.3        1 UNL1     -0.0566
     48 O         -2.865433   -2.028323   -0.570574 O.3        1 UNL1     -0.3909
     49 C         -0.7452   0.354478   -0.665313 C.3        1 UNL1     -0.0577
     50 O         -0.521898   -0.708021   -4.103475 O.3        1 UNL1     -0.3910
     51 O         0.896304   1.436537   -5.334093 O.3        1 UNL1     -0.3753
     52 C         -1.001326   2.830749   -2.408473 C.3        1 UNL1     -0.0564
     53 O         1.909906   2.048088   -1.133895 O.3        1 UNL1     -0.4608
     54 C         1.739714   1.2752   -0.015143 C.2        1 UNL1     0.3042
     55 O         2.604059   0.917609   0.784154 O.2        1 UNL1     -0.2512
     56 C         0.30868   0.898454   0.24354 C.3        1 UNL1     0.0332
     57 C         2.537104   -0.088084   -4.098094 C.3        1 UNL1     -0.0567
     58 C         -3.505199   4.04393   -5.835455 C.3        1 UNL1     0.0210
     59 C         0.662236   1.305521   -6.735489 C.3        1 UNL1     0.0372
     60 C         -1.247075   2.323478   -5.154918 C.2        1 UNL1     -0.0208
     61 C         -1.790631   1.498373   -6.050738 C.2        1 UNL1     0.0882
     62 H         -4.222397   -0.879755   -3.309146 H        1 UNL1     0.0365
     63 H         -6.221001   -0.615904   -3.635012 H        1 UNL1     0.0576
     64 H         -7.895963   -1.965026   -1.427945 H        1 UNL1     0.0615
     65 H         -8.649534   -0.180299   -3.878402 H        1 UNL1     0.0622
     66 H         0.51407   3.426245   -5.105778 H        1 UNL1     0.0645
     67 H         0.790867   3.597909   -3.009562 H        1 UNL1     0.0362
     68 H         2.384577   2.089569   -3.040789 H        1 UNL1     0.0741
     69 H         2.148147   -0.388973   -2.131217 H        1 UNL1     0.0359
     70 H         0.552748   -1.798539   -2.814837 H        1 UNL1     0.0600
     71 H         -0.638164   -1.656078   -1.007589 H        1 UNL1     0.0348
     72 H         -2.452993   -1.415906   -2.614063 H        1 UNL1     0.0602
     73 H         -1.827689   3.106101   -4.733448 H        1 UNL1     0.0628
     74 H         -1.281197   0.637466   -6.484966 H        1 UNL1     0.1022
     75 H         -12.325149   0.256347   -1.871123 H        1 UNL1     0.0279
     76 H         -12.149584   -1.45183   -1.939002 H        1 UNL1     0.0279
     77 H         -11.295081   -0.451043   -0.696606 H        1 UNL1     0.0279
     78 H         -10.88047   2.094651   -2.039848 H        1 UNL1     0.1553
     79 H         -9.263199   1.686184   -0.970355 H        1 UNL1     0.1484
     80 H         -5.884338   3.252238   -0.215198 H        1 UNL1     0.0317
     81 H         -7.083077   4.02716   -1.241087 H        1 UNL1     0.0317
     82 H         -8.941965   3.285915   0.271789 H        1 UNL1     0.0428
     83 H         -7.730195   4.234932   1.104065 H        1 UNL1     0.0428
     84 H         -7.497911   0.012921   1.577146 H        1 UNL1     0.0428
     85 H         -8.801326   0.606987   0.608994 H        1 UNL1     0.0428
     86 H         -6.796873   -0.256305   -0.600034 H        1 UNL1     0.0317
     87 H         -5.754267   0.892416   0.104072 H        1 UNL1     0.0317
     88 H         -7.607251   2.803194   3.480877 H        1 UNL1     0.0429
     89 H         -9.190427   2.95498   2.71488 H        1 UNL1     0.0429
     90 H         -8.134682   0.155382   2.825469 H        1 UNL1     0.0308
     91 H         -8.351135   1.811223   5.353596 H        1 UNL1     0.0233
     92 H         -8.957796   0.135927   5.382621 H        1 UNL1     0.0233
     93 H         -7.277955   0.459535   5.011118 H        1 UNL1     0.0233
     94 H         -10.692223   0.70256   4.103736 H        1 UNL1     0.0233
     95 H         -10.577149   1.40474   2.482617 H        1 UNL1     0.0233
     96 H         -10.306381   -0.337554   2.717323 H        1 UNL1     0.0233
     97 H         -6.567988   3.333818   -9.689165 H        1 UNL1     0.0280
     98 H         -7.768115   4.556622   -9.370364 H        1 UNL1     0.0280
     99 H         -6.070271   4.830346   -8.878294 H        1 UNL1     0.0280
     100 H         -9.796948   4.82551   -7.147336 H        1 UNL1     0.2922
     101 H         -3.125697   -2.980916   -3.45725 H        1 UNL1     0.0236
     102 H         -4.871304   -3.4326   -3.579323 H        1 UNL1     0.0236
     103 H         -3.970834   -3.690522   -2.11709 H        1 UNL1     0.0236
     104 H         -2.934702   -1.543473   0.275059 H        1 UNL1     0.2098
     105 H         -0.358914   1.245899   -1.153128 H        1 UNL1     0.0234
     106 H         -1.574858   0.613242   -0.007563 H        1 UNL1     0.0234
     107 H         0.0   0.0   0.0 H        1 UNL1     0.0234
     108 H         -1.429913   -1.04466   -3.977175 H        1 UNL1     0.2098
     109 H         -1.42807   1.899573   -2.010337 H        1 UNL1     0.0234
     110 H         -0.931516   3.573925   -1.606876 H        1 UNL1     0.0234
     111 H         -1.762253   3.240604   -3.085935 H        1 UNL1     0.0234
     112 H         0.264936   0.072841   0.960335 H        1 UNL1     0.0342
     113 H         -0.282242   1.746073   0.587337 H        1 UNL1     0.0342
     114 H         -0.129969   0.548074   -0.70091 H        1 UNL1     0.0342
     115 H         3.053458   -1.056598   -4.047627 H        1 UNL1     0.0234
     116 H         2.056068   -0.023002   -5.07606 H        1 UNL1     0.0234
     117 H         3.39203   0.609774   -4.091963 H        1 UNL1     0.0234
     118 H         -3.195974   4.051904   -4.775585 H        1 UNL1     0.0309
     119 H         -2.702383   4.46932   -6.445972 H        1 UNL1     0.0309
     120 H         -4.32539   4.769558   -5.864714 H        1 UNL1     0.0309
     121 H         -0.38924   1.054315   -6.872057 H        1 UNL1     0.0524
     122 H         0.852739   2.244713   -7.281075 H        1 UNL1     0.0524
     123 H         1.291468   0.523055   -7.150106 H        1 UNL1     0.0524
@<TRIPOS>BOND
     1     1     2    1
     2     1    42    1
     3     2     3    2
     4     3     4    1
     5     4     5    2
     6     5     7    1
     7     6    75    1
     8     6    76    1
     9     6    77    1
    10     7     9   am
    11     9    10    1
    12    10    11    2
    13    10    43    1
    14    11    14    1
    15    11    15    1
    16    12    13   ar
    17    12    27   ar
    18    12    43    1
    19    13    14    1
    20    13    30   ar
    21    14    17    2
    22    15    16    1
    23    16    17    1
    24    16    18    1
    25    16    22    1
    26    18    19    1
    27    19    20    1
    28    20    21    1
    29    21    22    1
    30    23    24    1
    31    23    88    1
    32    23    89    1
    33    24    25    1
    34    24    26    1
    35    24    90    1
    36    25    91    1
    37    25    92    1
    38    25    93    1
    39    26    94    1
    40    26    95    1
    41    26    96    1
    42    27    28   ar
    43    28    29   ar
    44    29    30   ar
    45    29    31    1
    46    30    33    1
    47    31    32    1
    48    32    33    1
    49    32    35    1
    50    34    97    1
    51    34    98    1
    52    34    99    1
    53    35    61    1
    54    36    37    1
    55    36    60    1
    56    37    38    1
    57    38    39    1
    58    39    40    1
    59    40    41    1
    60    41    42    1
    61    45   100    1
    62    47   101    1
    63    47   102    1
    64    47   103    1
    65    48   104    1
    66    49   105    1
    67    49   106    1
    68    49   107    1
    69    50   108    1
    70    51    59    1
    71    52   109    1
    72    52   110    1
    73    52   111    1
    74    53    54    1
    75    54    55    2
    76    54    56    1
    77    56   112    1
    78    56   113    1
    79    56   114    1
    80    57   115    1
    81    57   116    1
    82    57   117    1
    83    58   118    1
    84    58   119    1
    85    58   120    1
    86    59   121    1
    87    59   122    1
    88    59   123    1
    89    60    61    2
    90     1    47    1
    91     1    62    1
    92     2    63    1
    93     3    64    1
    94     4    65    1
    95     5     6    1
    96     7     8    2
    97     9    78    1
    98    15    79    1
    99    18    80    1
   100    18    81    1
   101    19    82    1
   102    19    83    1
   103    20    23    1
   104    21    84    1
   105    21    85    1
   106    22    86    1
   107    22    87    1
   108    27    45    1
   109    28    34    1
   110    32    58    1
   111    33    46    2
   112    36    51    1
   113    36    66    1
   114    37    52    1
   115    37    67    1
   116    38    53    1
   117    38    68    1
   118    42    48    1
   119    42    72    1
   120    43    44    2
   121    60    73    1
   122    61    74    1
   123    39    69    1
   124    39    57    1
   125    40    70    1
   126    40    50    1
   127    41    71    1
   128    41    49    1
