@<TRIPOS>MOLECULE
*****
 123 128 0 0 0
SMALL
GASTEIGER

@<TRIPOS>ATOM
     1 C         5.167371   1.746512   0.497552 C.3        1 UNL1     0.0009
     2 C         6.605133   2.552746   -0.350897 C.2        1 UNL1     -0.0787
     3 C         7.887673   2.454619   -1.015358 C.2        1 UNL1     -0.0649
     4 C         8.766203   3.689952   -1.769344 C.2        1 UNL1     -0.0542
     5 C         9.787268   3.982874   -2.706734 C.2        1 UNL1     0.0115
     6 C         10.916204   3.357639   -3.57155 C.3        1 UNL1     -0.0348
     7 C         9.883596   5.466448   -3.312307 C.2        1 UNL1     0.2441
     8 O         10.707291   6.28768   -2.933322 O.2        1 UNL1     -0.2702
     9 N         9.134632   5.674258   -4.483639 N.am        1 UNL1     -0.2772
     10 C         7.85169   6.061078   -4.17099 C.2        1 UNL1     0.1049
     11 C         7.005365   5.089709   -3.880474 C.2        1 UNL1     0.0801
     12 C         6.552238   7.667256   -2.760687 C.ar        1 UNL1     0.0753
     13 C         5.792443   6.539276   -2.314615 C.ar        1 UNL1     0.0305
     14 C         5.909718   5.233909   -2.960614 C.2        1 UNL1     0.0924
     15 N         7.127822   3.760791   -4.040184 N.pl3        1 UNL1     -0.3170
     16 C         5.857492   3.161757   -3.727654 C.3        1 UNL1     0.1275
     17 N         5.220317   4.116598   -2.747852 N.2        1 UNL1     -0.2557
     18 C         5.005962   3.221747   -4.992169 C.3        1 UNL1     0.0016
     19 C         5.761838   2.538103   -6.120385 C.3        1 UNL1     0.0026
     20 N         6.031243   1.159719   -5.735022 N.3        1 UNL1     -0.3018
     21 C         6.793283   0.998441   -4.495001 C.3        1 UNL1     0.0026
     22 C         6.013552   1.688523   -3.37442 C.3        1 UNL1     0.0016
     23 C         6.476692   0.340695   -6.844715 C.3        1 UNL1     0.0012
     24 C         5.321084   0.088416   -7.825879 C.3        1 UNL1     -0.0339
     25 C         5.34371   1.091202   -8.991197 C.3        1 UNL1     -0.0615
     26 C         5.363146   -1.346394   -8.322196 C.3        1 UNL1     -0.0615
     27 C         6.347334   8.934697   -2.220572 C.ar        1 UNL1     0.1347
     28 C         5.387353   9.203944   -1.261408 C.ar        1 UNL1     0.0342
     29 C         4.685039   8.069409   -0.802334 C.ar        1 UNL1     0.1435
     30 C         4.904687   6.787611   -1.308268 C.ar        1 UNL1     0.0774
     31 O         3.643198   8.182754   0.050149 O.3        1 UNL1     -0.4436
     32 C         2.921364   6.950192   -0.093443 C.3        1 UNL1     0.3143
     33 C         3.934963   5.957134   -0.625106 C.2        1 UNL1     0.2504
     34 C         4.940398   10.569911   -0.820429 C.3        1 UNL1     -0.0327
     35 O         2.559269   6.512847   1.222182 O.2        1 UNL1     -0.4528
     36 C         -0.683844   4.581682   0.821048 C.3        1 UNL1     0.0854
     37 C         -0.98854   3.321672   -0.077316 C.3        1 UNL1     0.0236
     38 C         -1.590213   2.060339   0.709305 C.3        1 UNL1     0.1131
     39 C         -0.865918   1.528504   2.011157 C.3        1 UNL1     0.0200
     40 C         0.795195   1.382526   2.053944 C.3        1 UNL1     0.0661
     41 C         1.75557   0.614107   0.885689 C.3        1 UNL1     0.0091
     42 C         3.463823   0.976554   0.323632 C.3        1 UNL1     0.0661
     43 C         7.503375   7.459939   -3.880784 C.2        1 UNL1     0.2131
     44 O         7.904214   8.358315   -4.59841 O.2        1 UNL1     -0.2851
     45 O         7.160324   9.969857   -2.677659 O.3        1 UNL1     -0.5056
     46 O         3.950521   4.753524   -0.494976 O.2        1 UNL1     -0.2836
     47 C         5.562158   1.316146   1.935922 C.3        1 UNL1     -0.0566
     48 O         3.911954   -0.434707   0.405099 O.3        1 UNL1     -0.3909
     49 C         0.922592   0.382405   -0.355261 C.3        1 UNL1     -0.0577
     50 O         1.395293   2.600024   2.448031 O.3        1 UNL1     -0.3910
     51 O         -0.809399   4.391275   2.212239 O.3        1 UNL1     -0.3753
     52 C         0.05705   3.161574   -1.228862 C.3        1 UNL1     -0.0564
     53 O         -2.192155   1.021998   -0.191716 O.3        1 UNL1     -0.4608
     54 C         -2.415128   -0.28812   0.142652 C.2        1 UNL1     0.3042
     55 O         -1.842813   -1.281011   -0.305077 O.2        1 UNL1     -0.2512
     56 C         -3.445554   -0.466557   1.221121 C.3        1 UNL1     0.0332
     57 C         -1.588065   2.196987   3.272033 C.3        1 UNL1     -0.0567
     58 C         1.847335   7.196142   -1.178569 C.3        1 UNL1     0.0210
     59 C         -1.153977   5.563597   2.948984 C.3        1 UNL1     0.0372
     60 C         0.645542   5.210561   0.592129 C.2        1 UNL1     -0.0208
     61 C         1.5577   5.645092   1.4627 C.2        1 UNL1     0.0882
     62 H         4.691607   2.730756   0.584872 H        1 UNL1     0.0365
     63 H         6.339041   3.606555   -0.24529 H        1 UNL1     0.0576
     64 H         8.345311   1.487775   -1.236466 H        1 UNL1     0.0615
     65 H         8.278996   4.605281   -1.422523 H        1 UNL1     0.0622
     66 H         -1.427992   5.328565   0.510474 H        1 UNL1     0.0645
     67 H         -1.85339   3.631586   -0.68932 H        1 UNL1     0.0362
     68 H         -2.537531   2.497261   1.060318 H        1 UNL1     0.0741
     69 H         -1.197892   0.517383   2.205674 H        1 UNL1     0.0359
     70 H         0.905911   0.72169   2.934909 H        1 UNL1     0.0600
     71 H         1.798465   -0.407301   1.312121 H        1 UNL1     0.0348
     72 H         3.357069   1.464255   1.303462 H        1 UNL1     0.0602
     73 H         0.764538   5.408341   -0.444197 H        1 UNL1     0.0628
     74 H         1.539017   5.433854   2.532404 H        1 UNL1     0.1022
     75 H         10.960253   2.252267   -3.419086 H        1 UNL1     0.0279
     76 H         10.803685   3.441039   -4.650185 H        1 UNL1     0.0279
     77 H         11.921024   3.661915   -3.243747 H        1 UNL1     0.0279
     78 H         9.072946   4.804608   -5.008979 H        1 UNL1     0.1553
     79 H         7.79361   3.332966   -4.657132 H        1 UNL1     0.1484
     80 H         4.044362   2.730951   -4.799272 H        1 UNL1     0.0317
     81 H         4.779888   4.258703   -5.262842 H        1 UNL1     0.0317
     82 H         6.692885   3.069305   -6.367143 H        1 UNL1     0.0428
     83 H         5.137602   2.593884   -7.012724 H        1 UNL1     0.0428
     84 H         6.913028   -0.044708   -4.186271 H        1 UNL1     0.0428
     85 H         7.823572   1.36627   -4.597578 H        1 UNL1     0.0428
     86 H         6.528993   1.437541   -2.46595 H        1 UNL1     0.0317
     87 H         5.033861   1.211065   -3.250578 H        1 UNL1     0.0317
     88 H         7.271236   0.883946   -7.372799 H        1 UNL1     0.0429
     89 H         6.911524   -0.604026   -6.49372 H        1 UNL1     0.0429
     90 H         4.368385   0.193341   -7.293367 H        1 UNL1     0.0308
     91 H         6.292329   1.048065   -9.53467 H        1 UNL1     0.0233
     92 H         4.523338   0.895098   -9.685562 H        1 UNL1     0.0233
     93 H         5.217428   2.126949   -8.653386 H        1 UNL1     0.0233
     94 H         4.666537   -1.477773   -9.157248 H        1 UNL1     0.0233
     95 H         6.36777   -1.588707   -8.679935 H        1 UNL1     0.0233
     96 H         5.090824   -2.050484   -7.530953 H        1 UNL1     0.0233
     97 H         4.146299   10.519935   -0.081417 H        1 UNL1     0.0280
     98 H         5.752817   11.139501   -0.350536 H        1 UNL1     0.0280
     99 H         4.567741   11.135003   -1.690425 H        1 UNL1     0.0280
     100 H         6.693803   10.720495   -3.00096 H        1 UNL1     0.2922
     101 H         4.698726   0.882453   2.439958 H        1 UNL1     0.0236
     102 H         6.012554   2.12107   2.515771 H        1 UNL1     0.0236
     103 H         6.318208   0.513288   1.935159 H        1 UNL1     0.0236
     104 H         4.330573   -0.561266   1.279005 H        1 UNL1     0.2098
     105 H         0.711381   1.281485   -0.92872 H        1 UNL1     0.0234
     106 H         1.292029   -0.40587   -1.011056 H        1 UNL1     0.0234
     107 H         0.0   -0.0   0.0 H        1 UNL1     0.0234
     108 H         1.195214   3.259426   1.755987 H        1 UNL1     0.2098
     109 H         1.081473   3.047642   -0.847692 H        1 UNL1     0.0234
     110 H         -0.17491   2.334893   -1.908962 H        1 UNL1     0.0234
     111 H         0.07912   4.044729   -1.881163 H        1 UNL1     0.0234
     112 H         -3.571398   -1.530596   1.443224 H        1 UNL1     0.0342
     113 H         -3.197504   0.093799   2.121297 H        1 UNL1     0.0342
     114 H         -4.405011   -0.085172   0.845418 H        1 UNL1     0.0342
     115 H         -2.652345   1.928797   3.322732 H        1 UNL1     0.0234
     116 H         -1.137556   1.935823   4.23166 H        1 UNL1     0.0234
     117 H         -1.648201   3.297329   3.212253 H        1 UNL1     0.0234
     118 H         0.945965   7.683053   -0.766916 H        1 UNL1     0.0309
     119 H         2.217703   7.784483   -2.024078 H        1 UNL1     0.0309
     120 H         1.458963   6.264505   -1.604392 H        1 UNL1     0.0309
     121 H         -0.350919   6.287199   2.811674 H        1 UNL1     0.0524
     122 H         -2.085311   6.028125   2.584474 H        1 UNL1     0.0524
     123 H         -1.267751   5.325371   4.002738 H        1 UNL1     0.0524
@<TRIPOS>BOND
     1     1     2    1
     2     1    42    1
     3     2     3    2
     4     3     4    1
     5     4     5    2
     6     5     7    1
     7     6    75    1
     8     6    76    1
     9     6    77    1
    10     7     9   am
    11     9    10    1
    12    10    11    2
    13    10    43    1
    14    11    14    1
    15    11    15    1
    16    12    13   ar
    17    12    27   ar
    18    12    43    1
    19    13    14    1
    20    13    30   ar
    21    14    17    2
    22    15    16    1
    23    16    17    1
    24    16    18    1
    25    16    22    1
    26    18    19    1
    27    19    20    1
    28    20    21    1
    29    21    22    1
    30    23    24    1
    31    23    88    1
    32    23    89    1
    33    24    25    1
    34    24    26    1
    35    24    90    1
    36    25    91    1
    37    25    92    1
    38    25    93    1
    39    26    94    1
    40    26    95    1
    41    26    96    1
    42    27    28   ar
    43    28    29   ar
    44    29    30   ar
    45    29    31    1
    46    30    33    1
    47    31    32    1
    48    32    33    1
    49    32    35    1
    50    34    97    1
    51    34    98    1
    52    34    99    1
    53    35    61    1
    54    36    37    1
    55    36    60    1
    56    37    38    1
    57    38    39    1
    58    39    40    1
    59    40    41    1
    60    41    42    1
    61    45   100    1
    62    47   101    1
    63    47   102    1
    64    47   103    1
    65    48   104    1
    66    49   105    1
    67    49   106    1
    68    49   107    1
    69    50   108    1
    70    51    59    1
    71    52   109    1
    72    52   110    1
    73    52   111    1
    74    53    54    1
    75    54    55    2
    76    54    56    1
    77    56   112    1
    78    56   113    1
    79    56   114    1
    80    57   115    1
    81    57   116    1
    82    57   117    1
    83    58   118    1
    84    58   119    1
    85    58   120    1
    86    59   121    1
    87    59   122    1
    88    59   123    1
    89    60    61    2
    90     1    47    1
    91     1    62    1
    92     2    63    1
    93     3    64    1
    94     4    65    1
    95     5     6    1
    96     7     8    2
    97     9    78    1
    98    15    79    1
    99    18    80    1
   100    18    81    1
   101    19    82    1
   102    19    83    1
   103    20    23    1
   104    21    84    1
   105    21    85    1
   106    22    86    1
   107    22    87    1
   108    27    45    1
   109    28    34    1
   110    32    58    1
   111    33    46    2
   112    36    51    1
   113    36    66    1
   114    37    52    1
   115    37    67    1
   116    38    53    1
   117    38    68    1
   118    42    48    1
   119    42    72    1
   120    43    44    2
   121    60    73    1
   122    61    74    1
   123    39    69    1
   124    39    57    1
   125    40    70    1
   126    40    50    1
   127    41    71    1
   128    41    49    1
