@<TRIPOS>MOLECULE
*****
 123 128 0 0 0
SMALL
GASTEIGER

@<TRIPOS>ATOM
     1 C         5.0362   2.057149   0.645433 C.3        1 UNL1     0.0009
     2 C         6.422016   2.998938   -0.14803 C.2        1 UNL1     -0.0787
     3 C         7.717587   3.021017   -0.793828 C.2        1 UNL1     -0.0649
     4 C         8.512576   4.345625   -1.486478 C.2        1 UNL1     -0.0542
     5 C         9.522256   4.748583   -2.394911 C.2        1 UNL1     0.0115
     6 C         10.706633   4.24172   -3.263049 C.3        1 UNL1     -0.0348
     7 C         9.516749   6.257289   -2.943331 C.2        1 UNL1     0.2441
     8 O         10.271751   7.121864   -2.520239 O.2        1 UNL1     -0.2702
     9 N         8.771095   6.454006   -4.118684 N.am        1 UNL1     -0.2772
     10 C         7.458675   6.733046   -3.813706 C.2        1 UNL1     0.1049
     11 C         6.682769   5.691586   -3.573806 C.2        1 UNL1     0.0801
     12 C         6.023717   8.184051   -2.367051 C.ar        1 UNL1     0.0753
     13 C         5.343515   6.986946   -1.976063 C.ar        1 UNL1     0.0305
     14 C         5.566518   5.71942   -2.667944 C.2        1 UNL1     0.0924
     15 N         6.905797   4.382377   -3.780586 N.pl3        1 UNL1     -0.3170
     16 C         5.679145   3.679897   -3.512073 C.3        1 UNL1     0.1275
     17 N         4.959023   4.547051   -2.508483 N.2        1 UNL1     -0.2557
     18 C         4.843512   3.725313   -4.787752 C.3        1 UNL1     0.0016
     19 C         5.663964   3.142838   -5.927564 C.3        1 UNL1     0.0026
     20 N         6.02947   1.774315   -5.589068 N.3        1 UNL1     -0.3018
     21 C         6.783734   1.622306   -4.343135 C.3        1 UNL1     0.0026
     22 C         5.939125   2.209732   -3.211119 C.3        1 UNL1     0.0016
     23 C         6.550171   1.033355   -6.720656 C.3        1 UNL1     0.0012
     24 C         5.431372   0.738143   -7.732038 C.3        1 UNL1     -0.0339
     25 C         5.637404   1.516784   -9.041743 C.3        1 UNL1     -0.0615
     26 C         5.334723   -0.75717   -7.979985 C.3        1 UNL1     -0.0615
     27 C         5.717652   9.411377   -1.783858 C.ar        1 UNL1     0.1347
     28 C         4.726839   9.572316   -0.831788 C.ar        1 UNL1     0.0342
     29 C         4.104256   8.372414   -0.427078 C.ar        1 UNL1     0.1435
     30 C         4.425604   7.13056   -0.976399 C.ar        1 UNL1     0.0774
     31 O         3.044902   8.376039   0.411231 O.3        1 UNL1     -0.4436
     32 C         2.418671   7.100054   0.209811 C.3        1 UNL1     0.3143
     33 C         3.510628   6.205404   -0.341046 C.2        1 UNL1     0.2504
     34 C         4.173505   10.883791   -0.3481 C.3        1 UNL1     -0.0327
     35 O         2.07144   6.587244   1.501983 O.2        1 UNL1     -0.4528
     36 C         -1.013345   4.439215   0.974572 C.3        1 UNL1     0.0854
     37 C         -1.210898   3.195459   0.025063 C.3        1 UNL1     0.0236
     38 C         -1.728355   1.864085   0.754052 C.3        1 UNL1     0.1131
     39 C         -0.985094   1.337653   2.047382 C.3        1 UNL1     0.0200
     40 C         0.6815   1.312887   2.11289 C.3        1 UNL1     0.0661
     41 C         1.712727   0.662522   0.933396 C.3        1 UNL1     0.0091
     42 C         3.397149   1.171027   0.414216 C.3        1 UNL1     0.0661
     43 C         7.003395   8.090331   -3.477775 C.2        1 UNL1     0.2131
     44 O         7.34656   9.04257   -4.154691 O.2        1 UNL1     -0.2851
     45 O         6.457943   10.520322   -2.188392 O.3        1 UNL1     -0.5056
     46 O         3.613654   5.002115   -0.255395 O.2        1 UNL1     -0.2836
     47 C         5.441428   1.602347   2.073343 C.3        1 UNL1     -0.0566
     48 O         3.947616   -0.205476   0.450881 O.3        1 UNL1     -0.3909
     49 C         0.916915   0.417717   -0.329239 C.3        1 UNL1     -0.0577
     50 O         1.183912   2.555316   2.561974 O.3        1 UNL1     -0.3910
     51 O         -1.144116   4.187023   2.355416 O.3        1 UNL1     -0.3753
     52 C         -0.140097   3.156954   -1.113731 C.3        1 UNL1     -0.0564
     53 O         -2.238723   0.819443   -0.194933 O.3        1 UNL1     -0.4608
     54 C         -2.378012   -0.513712   0.090071 C.2        1 UNL1     0.3042
     55 O         -1.684376   -1.442204   -0.322977 O.2        1 UNL1     -0.2512
     56 C         -3.48306   -0.808196   1.064166 C.3        1 UNL1     0.0332
     57 C         -1.772668   1.902431   3.319753 C.3        1 UNL1     -0.0567
     58 C         1.34483   7.307542   -0.883506 C.3        1 UNL1     0.0210
     59 C         -2.332486   4.706996   2.949781 C.3        1 UNL1     0.0372
     60 C         0.268795   5.17259   0.791708 C.2        1 UNL1     -0.0208
     61 C         1.13375   5.639518   1.693137 C.2        1 UNL1     0.0882
     62 H         4.48749   2.999618   0.761111 H        1 UNL1     0.0365
     63 H         6.076955   4.025475   -0.007945 H        1 UNL1     0.0576
     64 H         8.248827   2.099669   -1.042845 H        1 UNL1     0.0615
     65 H         7.953895   5.208652   -1.114265 H        1 UNL1     0.0622
     66 H         -1.806412   5.140588   0.679334 H        1 UNL1     0.0645
     67 H         -2.087611   3.464007   -0.589606 H        1 UNL1     0.0362
     68 H         -2.710373   2.216307   1.104911 H        1 UNL1     0.0741
     69 H         -1.243808   0.298132   2.198611 H        1 UNL1     0.0359
     70 H         0.828477   0.628801   2.970493 H        1 UNL1     0.0600
     71 H         1.825286   -0.368508   1.322324 H        1 UNL1     0.0348
     72 H         3.240612   1.611718   1.409507 H        1 UNL1     0.0602
     73 H         0.387451   5.418078   -0.234404 H        1 UNL1     0.0628
     74 H         1.115647   5.386731   2.753802 H        1 UNL1     0.1022
     75 H         11.509211   3.810096   -2.617601 H        1 UNL1     0.0279
     76 H         10.491431   3.424194   -3.947453 H        1 UNL1     0.0279
     77 H         11.246922   5.058452   -3.763787 H        1 UNL1     0.0279
     78 H         8.781591   5.6029   -4.676882 H        1 UNL1     0.1553
     79 H         7.610184   4.028654   -4.401596 H        1 UNL1     0.1484
     80 H         3.918365   3.158009   -4.629523 H        1 UNL1     0.0317
     81 H         4.544937   4.752391   -5.023581 H        1 UNL1     0.0317
     82 H         6.556408   3.750216   -6.138628 H        1 UNL1     0.0428
     83 H         5.050016   3.186569   -6.827678 H        1 UNL1     0.0428
     84 H         6.976205   0.57977   -4.071315 H        1 UNL1     0.0428
     85 H         7.785222   2.068672   -4.414515 H        1 UNL1     0.0428
     86 H         6.458853   1.962844   -2.303971 H        1 UNL1     0.0317
     87 H         4.995928   1.65703   -3.1217 H        1 UNL1     0.0317
     88 H         7.311851   1.652166   -7.212805 H        1 UNL1     0.0429
     89 H         7.046203   0.108951   -6.397849 H        1 UNL1     0.0429
     90 H         4.468325   1.032724   -7.298477 H        1 UNL1     0.0308
     91 H         6.672728   1.445297   -9.388293 H        1 UNL1     0.0233
     92 H         4.971194   1.142494   -9.822563 H        1 UNL1     0.0233
     93 H         5.411391   2.584442   -8.932834 H        1 UNL1     0.0233
     94 H         4.844883   -0.94986   -8.940591 H        1 UNL1     0.0233
     95 H         6.336104   -1.195034   -8.018377 H        1 UNL1     0.0233
     96 H         4.761332   -1.255833   -7.193521 H        1 UNL1     0.0233
     97 H         3.102677   10.95947   -0.511897 H        1 UNL1     0.0280
     98 H         4.323163   11.023522   0.730479 H        1 UNL1     0.0280
     99 H         4.664565   11.71197   -0.884827 H        1 UNL1     0.0280
     100 H         5.941744   11.272152   -2.420586 H        1 UNL1     0.2922
     101 H         4.637004   1.013706   2.513865 H        1 UNL1     0.0236
     102 H         5.743534   2.428108   2.716642 H        1 UNL1     0.0236
     103 H         6.310433   0.923476   2.060741 H        1 UNL1     0.0236
     104 H         4.283479   -0.364852   1.354632 H        1 UNL1     0.2098
     105 H         0.688356   1.315979   -0.897303 H        1 UNL1     0.0234
     106 H         1.328055   -0.349608   -0.985062 H        1 UNL1     0.0234
     107 H         0.0   -0.0   0.0 H        1 UNL1     0.0234
     108 H         1.085411   3.19083   1.826999 H        1 UNL1     0.2098
     109 H         -0.186996   4.045272   -1.759024 H        1 UNL1     0.0234
     110 H         0.881471   3.029222   -0.739797 H        1 UNL1     0.0234
     111 H         -0.289007   2.297104   -1.780387 H        1 UNL1     0.0234
     112 H         -4.059274   -1.673532   0.722819 H        1 UNL1     0.0342
     113 H         -3.107853   -0.962616   2.074719 H        1 UNL1     0.0342
     114 H         -4.158683   0.057886   1.088665 H        1 UNL1     0.0342
     115 H         -2.84637   1.674755   3.269592 H        1 UNL1     0.0234
     116 H         -1.401385   1.52566   4.274866 H        1 UNL1     0.0234
     117 H         -1.790782   3.004635   3.372287 H        1 UNL1     0.0234
     118 H         0.320581   7.230101   -0.478631 H        1 UNL1     0.0309
     119 H         1.449485   8.259684   -1.413293 H        1 UNL1     0.0309
     120 H         1.371971   6.527968   -1.652683 H        1 UNL1     0.0309
     121 H         -2.127387   4.871716   4.007211 H        1 UNL1     0.0524
     122 H         -2.628741   5.675798   2.514243 H        1 UNL1     0.0524
     123 H         -3.150927   4.002453   2.832019 H        1 UNL1     0.0524
@<TRIPOS>BOND
     1     1     2    1
     2     1    42    1
     3     2     3    2
     4     3     4    1
     5     4     5    2
     6     5     7    1
     7     6    75    1
     8     6    76    1
     9     6    77    1
    10     7     9   am
    11     9    10    1
    12    10    11    2
    13    10    43    1
    14    11    14    1
    15    11    15    1
    16    12    13   ar
    17    12    27   ar
    18    12    43    1
    19    13    14    1
    20    13    30   ar
    21    14    17    2
    22    15    16    1
    23    16    17    1
    24    16    18    1
    25    16    22    1
    26    18    19    1
    27    19    20    1
    28    20    21    1
    29    21    22    1
    30    23    24    1
    31    23    88    1
    32    23    89    1
    33    24    25    1
    34    24    26    1
    35    24    90    1
    36    25    91    1
    37    25    92    1
    38    25    93    1
    39    26    94    1
    40    26    95    1
    41    26    96    1
    42    27    28   ar
    43    28    29   ar
    44    29    30   ar
    45    29    31    1
    46    30    33    1
    47    31    32    1
    48    32    33    1
    49    32    35    1
    50    34    97    1
    51    34    98    1
    52    34    99    1
    53    35    61    1
    54    36    37    1
    55    36    60    1
    56    37    38    1
    57    38    39    1
    58    39    40    1
    59    40    41    1
    60    41    42    1
    61    45   100    1
    62    47   101    1
    63    47   102    1
    64    47   103    1
    65    48   104    1
    66    49   105    1
    67    49   106    1
    68    49   107    1
    69    50   108    1
    70    51    59    1
    71    52   109    1
    72    52   110    1
    73    52   111    1
    74    53    54    1
    75    54    55    2
    76    54    56    1
    77    56   112    1
    78    56   113    1
    79    56   114    1
    80    57   115    1
    81    57   116    1
    82    57   117    1
    83    58   118    1
    84    58   119    1
    85    58   120    1
    86    59   121    1
    87    59   122    1
    88    59   123    1
    89    60    61    2
    90     1    47    1
    91     1    62    1
    92     2    63    1
    93     3    64    1
    94     4    65    1
    95     5     6    1
    96     7     8    2
    97     9    78    1
    98    15    79    1
    99    18    80    1
   100    18    81    1
   101    19    82    1
   102    19    83    1
   103    20    23    1
   104    21    84    1
   105    21    85    1
   106    22    86    1
   107    22    87    1
   108    27    45    1
   109    28    34    1
   110    32    58    1
   111    33    46    2
   112    36    51    1
   113    36    66    1
   114    37    52    1
   115    37    67    1
   116    38    53    1
   117    38    68    1
   118    42    48    1
   119    42    72    1
   120    43    44    2
   121    60    73    1
   122    61    74    1
   123    39    69    1
   124    39    57    1
   125    40    70    1
   126    40    50    1
   127    41    71    1
   128    41    49    1
