@<TRIPOS>MOLECULE
*****
 123 128 0 0 0
SMALL
GASTEIGER

@<TRIPOS>ATOM
     1 C         -4.538365   -1.703214   -1.101127 C.3        1 UNL1     0.0009
     2 C         -5.428847   -2.197452   -2.650258 C.2        1 UNL1     -0.0787
     3 C         -6.498291   -1.991971   -3.604257 C.2        1 UNL1     -0.0649
     4 C         -6.759002   -2.804937   -5.066268 C.2        1 UNL1     -0.0542
     5 C         -7.404716   -2.750158   -6.326081 C.2        1 UNL1     0.0115
     6 C         -8.452286   -1.971419   -7.16839 C.3        1 UNL1     -0.0348
     7 C         -6.897838   -3.718765   -7.501608 C.2        1 UNL1     0.2441
     8 O         -7.48677   -4.742383   -7.820812 O.2        1 UNL1     -0.2702
     9 N         -5.882539   -3.180734   -8.311449 N.am        1 UNL1     -0.2772
     10 C         -4.645168   -3.453649   -7.775023 C.2        1 UNL1     0.1049
     11 C         -4.229752   -2.636301   -6.824448 C.2        1 UNL1     0.0801
     12 C         -3.254572   -5.310584   -6.839414 C.ar        1 UNL1     0.0753
     13 C         -3.002242   -4.453171   -5.721478 C.ar        1 UNL1     0.0305
     14 C         -3.375007   -3.040475   -5.741198 C.2        1 UNL1     0.0924
     15 N         -4.721882   -1.449495   -6.429699 N.pl3        1 UNL1     -0.3170
     16 C         -3.803392   -0.888653   -5.474667 C.3        1 UNL1     0.1275
     17 N         -3.132965   -2.086224   -4.846913 N.2        1 UNL1     -0.2557
     18 C         -2.718816   -0.161366   -6.263622 C.3        1 UNL1     0.0016
     19 C         -3.381703   0.861399   -7.172535 C.3        1 UNL1     0.0026
     20 N         -4.145267   1.791183   -6.351865 N.3        1 UNL1     -0.3018
     21 C         -5.173297   1.176931   -5.509121 C.3        1 UNL1     0.0026
     22 C         -4.484671   0.156508   -4.601142 C.3        1 UNL1     0.0016
     23 C         -4.567519   2.970815   -7.080437 C.3        1 UNL1     0.0012
     24 C         -5.063086   4.054548   -6.110029 C.3        1 UNL1     -0.0339
     25 C         -4.976915   5.454815   -6.739221 C.3        1 UNL1     -0.0615
     26 C         -6.474442   3.734786   -5.648936 C.3        1 UNL1     -0.0615
     27 C         -2.789286   -6.623265   -6.861711 C.ar        1 UNL1     0.1347
     28 C         -2.029626   -7.175728   -5.845959 C.ar        1 UNL1     0.0342
     29 C         -1.835334   -6.32883   -4.734123 C.ar        1 UNL1     0.1435
     30 C         -2.326258   -5.023642   -4.682188 C.ar        1 UNL1     0.0774
     31 O         -1.025076   -6.681815   -3.712414 O.3        1 UNL1     -0.4436
     32 C         -0.710394   -5.444949   -3.05514 C.3        1 UNL1     0.3143
     33 C         -1.839466   -4.503116   -3.421691 C.2        1 UNL1     0.2504
     34 C         -1.288057   -8.481892   -5.910075 C.3        1 UNL1     -0.0327
     35 O         -0.802152   -5.677016   -1.64412 O.2        1 UNL1     -0.4528
     36 C         1.681893   -3.300447   -0.034919 C.3        1 UNL1     0.0854
     37 C         1.768924   -1.729153   -0.13973 C.3        1 UNL1     0.0236
     38 C         1.758449   -0.956453   1.265464 C.3        1 UNL1     0.1131
     39 C         0.636183   -1.281453   2.331843 C.3        1 UNL1     0.0200
     40 C         -0.954033   -1.454442   1.858847 C.3        1 UNL1     0.0661
     41 C         -1.823521   -0.373513   0.88253 C.3        1 UNL1     0.0091
     42 C         -3.16547   -0.680617   -0.330014 C.3        1 UNL1     0.0661
     43 C         -3.951268   -4.728079   -8.013109 C.2        1 UNL1     0.2131
     44 O         -3.883506   -5.194561   -9.135847 O.2        1 UNL1     -0.2851
     45 O         -3.11728   -7.405251   -7.967313 O.3        1 UNL1     -0.5056
     46 O         -2.257657   -3.550859   -2.801872 O.2        1 UNL1     -0.2836
     47 C         -5.354565   -2.128427   0.14907 C.3        1 UNL1     -0.0566
     48 O         -4.037452   0.400537   0.189477 O.3        1 UNL1     -0.3909
     49 C         -0.852197   0.586119   0.232045 C.3        1 UNL1     -0.0577
     50 O         -1.216136   -2.784572   1.459123 O.3        1 UNL1     -0.3910
     51 O         1.431809   -3.819121   1.251886 O.3        1 UNL1     -0.3753
     52 C         1.006579   -1.186482   -1.392442 C.3        1 UNL1     -0.0564
     53 O         2.189881   0.477496   1.165556 O.3        1 UNL1     -0.4608
     54 C         1.565007   1.539461   1.765301 C.2        1 UNL1     0.3042
     55 O         1.859441   2.072768   2.834286 O.2        1 UNL1     -0.2512
     56 C         0.436103   2.109234   0.954347 C.3        1 UNL1     0.0332
     57 C         1.233917   -2.363787   3.346457 C.3        1 UNL1     -0.0567
     58 C         0.598224   -4.928832   -3.697536 C.3        1 UNL1     0.0210
     59 C         0.244786   -4.603185   1.361824 C.3        1 UNL1     0.0372
     60 C         0.699683   -3.938498   -0.953241 C.2        1 UNL1     -0.0208
     61 C         -0.199934   -4.896602   -0.726365 C.2        1 UNL1     0.0882
     62 H         -3.811148   -2.50281   -1.286904 H        1 UNL1     0.0365
     63 H         -4.877772   -3.099972   -2.922733 H        1 UNL1     0.0576
     64 H         -7.173829   -1.13672   -3.531451 H        1 UNL1     0.0615
     65 H         -6.099911   -3.674953   -5.001803 H        1 UNL1     0.0622
     66 H         2.670933   -3.653888   -0.358842 H        1 UNL1     0.0645
     67 H         2.799808   -1.540281   -0.486377 H        1 UNL1     0.0362
     68 H         2.692773   -1.346773   1.696986 H        1 UNL1     0.0741
     69 H         0.584991   -0.467249   3.042377 H        1 UNL1     0.0359
     70 H         -1.456589   -1.35638   2.840113 H        1 UNL1     0.0600
     71 H         -2.275533   0.270467   1.66223 H        1 UNL1     0.0348
     72 H         -3.130879   -1.570043   0.315772 H        1 UNL1     0.0602
     73 H         0.879872   -3.603774   -1.944573 H        1 UNL1     0.0628
     74 H         -0.484392   -5.253352   0.264115 H        1 UNL1     0.1022
     75 H         -8.257299   -0.873005   -7.118382 H        1 UNL1     0.0279
     76 H         -8.451433   -2.160968   -8.239436 H        1 UNL1     0.0279
     77 H         -9.466333   -2.031016   -6.746657 H        1 UNL1     0.0279
     78 H         -5.980711   -2.168572   -8.35581 H        1 UNL1     0.1553
     79 H         -5.334523   -0.886267   -6.990394 H        1 UNL1     0.1484
     80 H         -2.025554   0.316843   -5.561146 H        1 UNL1     0.0317
     81 H         -2.127002   -0.866654   -6.856897 H        1 UNL1     0.0317
     82 H         -4.022255   0.381134   -7.926823 H        1 UNL1     0.0428
     83 H         -2.590589   1.367094   -7.727027 H        1 UNL1     0.0428
     84 H         -5.677159   1.885912   -4.844831 H        1 UNL1     0.0428
     85 H         -5.988285   0.746089   -6.107022 H        1 UNL1     0.0428
     86 H         -5.239625   -0.173804   -3.911992 H        1 UNL1     0.0317
     87 H         -3.755304   0.661195   -3.955843 H        1 UNL1     0.0317
     88 H         -3.700498   3.362353   -7.628404 H        1 UNL1     0.0429
     89 H         -5.335099   2.725668   -7.825754 H        1 UNL1     0.0429
     90 H         -4.442044   4.038881   -5.20655 H        1 UNL1     0.0308
     91 H         -3.940769   5.80126   -6.798225 H        1 UNL1     0.0233
     92 H         -5.412957   5.455696   -7.740958 H        1 UNL1     0.0233
     93 H         -5.531256   6.206072   -6.163763 H        1 UNL1     0.0233
     94 H         -6.448995   3.22911   -4.677607 H        1 UNL1     0.0233
     95 H         -7.047999   4.658677   -5.533095 H        1 UNL1     0.0233
     96 H         -6.990142   3.086304   -6.362724 H        1 UNL1     0.0233
     97 H         -0.247409   -8.374324   -5.619024 H        1 UNL1     0.0280
     98 H         -1.713655   -9.233118   -5.232002 H        1 UNL1     0.0280
     99 H         -1.320127   -8.874321   -6.93967 H        1 UNL1     0.0280
     100 H         -3.973447   -7.242   -8.322208 H        1 UNL1     0.2922
     101 H         -5.085991   -3.145128   0.435154 H        1 UNL1     0.0236
     102 H         -6.429869   -2.010581   0.019396 H        1 UNL1     0.0236
     103 H         -5.109124   -1.51513   1.032143 H        1 UNL1     0.0236
     104 H         -3.630291   1.253232   -0.059726 H        1 UNL1     0.2098
     105 H         -1.211655   1.031172   -0.692362 H        1 UNL1     0.0234
     106 H         -0.460799   1.357292   0.895391 H        1 UNL1     0.0234
     107 H         0.0   0.0   0.0 H        1 UNL1     0.0234
     108 H         -1.495916   -2.756643   0.523863 H        1 UNL1     0.2098
     109 H         1.247733   -1.751952   -2.303376 H        1 UNL1     0.0234
     110 H         -0.079829   -1.157527   -1.255978 H        1 UNL1     0.0234
     111 H         1.275455   -0.144154   -1.60971 H        1 UNL1     0.0234
     112 H         0.828988   2.576061   0.046019 H        1 UNL1     0.0342
     113 H         -0.315264   1.358491   0.714187 H        1 UNL1     0.0342
     114 H         -0.053682   2.891614   1.550297 H        1 UNL1     0.0342
     115 H         1.041069   -3.391124   3.007964 H        1 UNL1     0.0234
     116 H         2.308712   -2.269475   3.513702 H        1 UNL1     0.0234
     117 H         0.73503   -2.366583   4.330858 H        1 UNL1     0.0234
     118 H         0.999763   -5.635158   -4.445116 H        1 UNL1     0.0309
     119 H         0.490281   -3.942066   -4.158885 H        1 UNL1     0.0309
     120 H         1.414561   -4.837056   -2.972776 H        1 UNL1     0.0309
     121 H         0.481262   -5.609491   1.017173 H        1 UNL1     0.0524
     122 H         -0.108615   -4.683468   2.403313 H        1 UNL1     0.0524
     123 H         -0.546381   -4.174733   0.753073 H        1 UNL1     0.0524
@<TRIPOS>BOND
     1     1     2    1
     2     1    42    1
     3     2     3    2
     4     3     4    1
     5     4     5    2
     6     5     7    1
     7     6    75    1
     8     6    76    1
     9     6    77    1
    10     7     9   am
    11     9    10    1
    12    10    11    2
    13    10    43    1
    14    11    14    1
    15    11    15    1
    16    12    13   ar
    17    12    27   ar
    18    12    43    1
    19    13    14    1
    20    13    30   ar
    21    14    17    2
    22    15    16    1
    23    16    17    1
    24    16    18    1
    25    16    22    1
    26    18    19    1
    27    19    20    1
    28    20    21    1
    29    21    22    1
    30    23    24    1
    31    23    88    1
    32    23    89    1
    33    24    25    1
    34    24    26    1
    35    24    90    1
    36    25    91    1
    37    25    92    1
    38    25    93    1
    39    26    94    1
    40    26    95    1
    41    26    96    1
    42    27    28   ar
    43    28    29   ar
    44    29    30   ar
    45    29    31    1
    46    30    33    1
    47    31    32    1
    48    32    33    1
    49    32    35    1
    50    34    97    1
    51    34    98    1
    52    34    99    1
    53    35    61    1
    54    36    37    1
    55    36    60    1
    56    37    38    1
    57    38    39    1
    58    39    40    1
    59    40    41    1
    60    41    42    1
    61    45   100    1
    62    47   101    1
    63    47   102    1
    64    47   103    1
    65    48   104    1
    66    49   105    1
    67    49   106    1
    68    49   107    1
    69    50   108    1
    70    51    59    1
    71    52   109    1
    72    52   110    1
    73    52   111    1
    74    53    54    1
    75    54    55    2
    76    54    56    1
    77    56   112    1
    78    56   113    1
    79    56   114    1
    80    57   115    1
    81    57   116    1
    82    57   117    1
    83    58   118    1
    84    58   119    1
    85    58   120    1
    86    59   121    1
    87    59   122    1
    88    59   123    1
    89    60    61    2
    90     1    47    1
    91     1    62    1
    92     2    63    1
    93     3    64    1
    94     4    65    1
    95     5     6    1
    96     7     8    2
    97     9    78    1
    98    15    79    1
    99    18    80    1
   100    18    81    1
   101    19    82    1
   102    19    83    1
   103    20    23    1
   104    21    84    1
   105    21    85    1
   106    22    86    1
   107    22    87    1
   108    27    45    1
   109    28    34    1
   110    32    58    1
   111    33    46    2
   112    36    51    1
   113    36    66    1
   114    37    52    1
   115    37    67    1
   116    38    53    1
   117    38    68    1
   118    42    48    1
   119    42    72    1
   120    43    44    2
   121    60    73    1
   122    61    74    1
   123    39    69    1
   124    39    57    1
   125    40    70    1
   126    40    50    1
   127    41    71    1
   128    41    49    1
