@<TRIPOS>MOLECULE
*****
 123 128 0 0 0
SMALL
GASTEIGER

@<TRIPOS>ATOM
     1 C         1.506414   3.515284   3.922403 C.3        1 UNL1     0.0009
     2 C         2.015632   5.255213   4.310197 C.2        1 UNL1     -0.0787
     3 C         3.047906   6.223596   4.614648 C.2        1 UNL1     -0.0649
     4 C         2.886294   7.901287   4.77462 C.2        1 UNL1     -0.0542
     5 C         3.572579   9.140575   4.758629 C.2        1 UNL1     0.0115
     6 C         4.980331   9.797281   4.741441 C.3        1 UNL1     -0.0348
     7 C         2.729711   10.492907   4.564312 C.2        1 UNL1     0.2441
     8 O         2.453732   11.243779   5.489813 O.2        1 UNL1     -0.2702
     9 N         2.55446   10.890735   3.22746 N.am        1 UNL1     -0.2772
     10 C         1.428295   10.305429   2.695961 C.2        1 UNL1     0.1049
     11 C         1.571667   9.073537   2.241967 C.2        1 UNL1     0.0801
     12 C         -0.997381   9.896831   3.150358 C.ar        1 UNL1     0.0753
     13 C         -0.741797   8.52137   2.848049 C.ar        1 UNL1     0.0305
     14 C         0.522807   8.090147   2.256546 C.2        1 UNL1     0.0924
     15 N         2.688425   8.359811   2.018422 N.pl3        1 UNL1     -0.3170
     16 C         2.305278   7.138873   1.360574 C.3        1 UNL1     0.1275
     17 N         0.891219   6.887522   1.824236 N.2        1 UNL1     -0.2557
     18 C         2.21432   7.439043   -0.132519 C.3        1 UNL1     0.0016
     19 C         3.544821   8.010835   -0.595563 C.3        1 UNL1     0.0026
     20 N         4.593302   7.038456   -0.319527 N.3        1 UNL1     -0.3018
     21 C         4.717472   6.639591   1.083989 C.3        1 UNL1     0.0026
     22 C         3.371251   6.063887   1.526874 C.3        1 UNL1     0.0016
     23 C         5.84199   7.35116   -0.985588 C.3        1 UNL1     0.0012
     24 C         5.711853   7.13753   -2.501894 C.3        1 UNL1     -0.0339
     25 C         6.945835   7.665271   -3.252117 C.3        1 UNL1     -0.0615
     26 C         5.460942   5.669837   -2.801397 C.3        1 UNL1     -0.0615
     27 C         -2.246825   10.316763   3.600542 C.ar        1 UNL1     0.1347
     28 C         -3.325513   9.463218   3.748676 C.ar        1 UNL1     0.0342
     29 C         -3.036867   8.106013   3.49208 C.ar        1 UNL1     0.1435
     30 C         -1.780162   7.665389   3.075229 C.ar        1 UNL1     0.0774
     31 O         -4.008788   7.16775   3.485907 O.3        1 UNL1     -0.4436
     32 C         -3.449411   6.071005   2.747584 C.3        1 UNL1     0.3143
     33 C         -1.948033   6.243553   2.858509 C.2        1 UNL1     0.2504
     34 C         -4.751748   9.877105   3.982451 C.3        1 UNL1     -0.0327
     35 O         -3.784312   4.86871   3.451558 O.2        1 UNL1     -0.4528
     36 C         -4.047411   2.155245   0.81035 C.3        1 UNL1     0.0854
     37 C         -2.969127   1.675274   -0.235811 C.3        1 UNL1     0.0236
     38 C         -2.642046   0.105785   -0.197531 C.3        1 UNL1     0.1131
     39 C         -2.284166   -0.588314   1.178121 C.3        1 UNL1     0.0200
     40 C         -1.245874   0.152323   2.253223 C.3        1 UNL1     0.0661
     41 C         0.277998   0.796916   1.87916 C.3        1 UNL1     0.0091
     42 C         1.173028   2.22878   2.59616 C.3        1 UNL1     0.0661
     43 C         0.085779   10.875446   2.883267 C.2        1 UNL1     0.2131
     44 O         -0.108442   12.066292   2.71925 O.2        1 UNL1     -0.2851
     45 O         -2.399082   11.665394   3.9159 O.3        1 UNL1     -0.5056
     46 O         -1.085911   5.395315   2.802901 O.2        1 UNL1     -0.2836
     47 C         1.554007   2.641041   5.204361 C.3        1 UNL1     -0.0566
     48 O         2.45285   1.49609   2.752168 O.3        1 UNL1     -0.3909
     49 C         0.407135   0.903589   0.376017 C.3        1 UNL1     -0.0577
     50 O         -1.94993   1.037267   3.101104 O.3        1 UNL1     -0.3910
     51 O         -4.458336   1.194271   1.756448 O.3        1 UNL1     -0.3753
     52 C         -1.856635   2.750971   -0.459835 C.3        1 UNL1     -0.0564
     53 O         -1.897238   -0.382105   -1.405649 O.3        1 UNL1     -0.4608
     54 C         -0.910852   -1.333394   -1.401097 C.2        1 UNL1     0.3042
     55 O         0.29587   -1.158836   -1.565994 O.2        1 UNL1     -0.2512
     56 C         -1.411708   -2.717632   -1.101527 C.3        1 UNL1     0.0332
     57 C         -3.630112   -1.226144   1.761026 C.3        1 UNL1     -0.0567
     58 C         -3.867738   6.277651   1.273193 C.3        1 UNL1     0.0210
     59 C         -5.777971   0.68773   1.561917 C.3        1 UNL1     0.0372
     60 C         -3.681921   3.379786   1.573291 C.2        1 UNL1     -0.0208
     61 C         -3.789201   3.651735   2.874551 C.2        1 UNL1     0.0882
     62 H         0.471158   3.861841   3.818214 H        1 UNL1     0.0365
     63 H         1.041299   5.745425   4.363448 H        1 UNL1     0.0576
     64 H         4.106194   5.953235   4.60841 H        1 UNL1     0.0615
     65 H         1.806122   8.053033   4.850019 H        1 UNL1     0.0622
     66 H         -4.920292   2.429102   0.201147 H        1 UNL1     0.0645
     67 H         -3.480109   1.769284   -1.209782 H        1 UNL1     0.0362
     68 H         -3.628124   -0.294515   -0.478482 H        1 UNL1     0.0741
     69 H         -1.785537   -1.526702   0.975127 H        1 UNL1     0.0359
     70 H         -0.994737   -0.709734   2.900408 H        1 UNL1     0.0600
     71 H         0.917077   -0.082902   2.090001 H        1 UNL1     0.0348
     72 H         0.4091   1.947545   3.335509 H        1 UNL1     0.0602
     73 H         -3.403093   4.145255   0.892438 H        1 UNL1     0.0628
     74 H         -4.012525   2.910881   3.64299 H        1 UNL1     0.1022
     75 H         5.642071   9.326138   5.507704 H        1 UNL1     0.0279
     76 H         5.559206   9.680087   3.828075 H        1 UNL1     0.0279
     77 H         4.965825   10.843266   5.081154 H        1 UNL1     0.0279
     78 H         3.350364   10.583804   2.672115 H        1 UNL1     0.1553
     79 H         3.59977   8.767938   1.919351 H        1 UNL1     0.1484
     80 H         1.967287   6.514739   -0.668619 H        1 UNL1     0.0317
     81 H         1.40559   8.147781   -0.3406 H        1 UNL1     0.0317
     82 H         3.76298   8.975539   -0.114246 H        1 UNL1     0.0428
     83 H         3.457338   8.219347   -1.662296 H        1 UNL1     0.0428
     84 H         5.457212   5.850686   1.251994 H        1 UNL1     0.0428
     85 H         5.064054   7.469211   1.715596 H        1 UNL1     0.0428
     86 H         3.537003   5.662972   2.509616 H        1 UNL1     0.0317
     87 H         3.127888   5.177232   0.928783 H        1 UNL1     0.0317
     88 H         6.072585   8.408382   -0.800116 H        1 UNL1     0.0429
     89 H         6.672171   6.763685   -0.572736 H        1 UNL1     0.0429
     90 H         4.82677   7.672972   -2.865409 H        1 UNL1     0.0308
     91 H         7.119029   8.724077   -3.037556 H        1 UNL1     0.0233
     92 H         7.836593   7.093939   -2.980571 H        1 UNL1     0.0233
     93 H         6.84379   7.573736   -4.340254 H        1 UNL1     0.0233
     94 H         5.724198   5.056711   -1.932715 H        1 UNL1     0.0233
     95 H         4.401403   5.508746   -3.019088 H        1 UNL1     0.0233
     96 H         6.052538   5.330184   -3.656159 H        1 UNL1     0.0233
     97 H         -5.415108   9.510425   3.204808 H        1 UNL1     0.0280
     98 H         -5.148011   9.481409   4.926727 H        1 UNL1     0.0280
     99 H         -4.818147   10.977227   4.002904 H        1 UNL1     0.0280
     100 H         -1.727758   12.014914   4.475169 H        1 UNL1     0.2922
     101 H         0.541505   2.464332   5.566672 H        1 UNL1     0.0236
     102 H         2.199931   3.051842   5.979608 H        1 UNL1     0.0236
     103 H         1.95938   1.635046   5.004764 H        1 UNL1     0.0236
     104 H         2.238709   0.584753   3.03249 H        1 UNL1     0.2098
     105 H         -0.148048   1.727609   -0.065088 H        1 UNL1     0.0234
     106 H         1.432107   0.897409   0.005448 H        1 UNL1     0.0234
     107 H         0.0   0.0   0.0 H        1 UNL1     0.0234
     108 H         -1.288288   1.603504   3.543115 H        1 UNL1     0.2098
     109 H         -2.262943   3.694589   -0.849977 H        1 UNL1     0.0234
     110 H         -1.264172   2.951145   0.439422 H        1 UNL1     0.0234
     111 H         -1.115192   2.418622   -1.198585 H        1 UNL1     0.0234
     112 H         -0.574709   -3.422399   -1.092452 H        1 UNL1     0.0342
     113 H         -1.967132   -2.7586   -0.165756 H        1 UNL1     0.0342
     114 H         -2.095391   -3.017088   -1.907796 H        1 UNL1     0.0342
     115 H         -3.434269   -2.149319   2.323682 H        1 UNL1     0.0234
     116 H         -4.19206   -0.556131   2.414743 H        1 UNL1     0.0234
     117 H         -4.316768   -1.594509   0.979519 H        1 UNL1     0.0234
     118 H         -4.604053   5.52468   0.941711 H        1 UNL1     0.0309
     119 H         -4.265007   7.278305   1.075532 H        1 UNL1     0.0309
     120 H         -3.033867   6.139344   0.576317 H        1 UNL1     0.0309
     121 H         -5.874353   -0.218981   2.158526 H        1 UNL1     0.0524
     122 H         -6.552089   1.394406   1.904535 H        1 UNL1     0.0524
     123 H         -5.943986   0.464835   0.51175 H        1 UNL1     0.0524
@<TRIPOS>BOND
     1     1     2    1
     2     1    42    1
     3     2     3    2
     4     3     4    1
     5     4     5    2
     6     5     7    1
     7     6    75    1
     8     6    76    1
     9     6    77    1
    10     7     9   am
    11     9    10    1
    12    10    11    2
    13    10    43    1
    14    11    14    1
    15    11    15    1
    16    12    13   ar
    17    12    27   ar
    18    12    43    1
    19    13    14    1
    20    13    30   ar
    21    14    17    2
    22    15    16    1
    23    16    17    1
    24    16    18    1
    25    16    22    1
    26    18    19    1
    27    19    20    1
    28    20    21    1
    29    21    22    1
    30    23    24    1
    31    23    88    1
    32    23    89    1
    33    24    25    1
    34    24    26    1
    35    24    90    1
    36    25    91    1
    37    25    92    1
    38    25    93    1
    39    26    94    1
    40    26    95    1
    41    26    96    1
    42    27    28   ar
    43    28    29   ar
    44    29    30   ar
    45    29    31    1
    46    30    33    1
    47    31    32    1
    48    32    33    1
    49    32    35    1
    50    34    97    1
    51    34    98    1
    52    34    99    1
    53    35    61    1
    54    36    37    1
    55    36    60    1
    56    37    38    1
    57    38    39    1
    58    39    40    1
    59    40    41    1
    60    41    42    1
    61    45   100    1
    62    47   101    1
    63    47   102    1
    64    47   103    1
    65    48   104    1
    66    49   105    1
    67    49   106    1
    68    49   107    1
    69    50   108    1
    70    51    59    1
    71    52   109    1
    72    52   110    1
    73    52   111    1
    74    53    54    1
    75    54    55    2
    76    54    56    1
    77    56   112    1
    78    56   113    1
    79    56   114    1
    80    57   115    1
    81    57   116    1
    82    57   117    1
    83    58   118    1
    84    58   119    1
    85    58   120    1
    86    59   121    1
    87    59   122    1
    88    59   123    1
    89    60    61    2
    90     1    47    1
    91     1    62    1
    92     2    63    1
    93     3    64    1
    94     4    65    1
    95     5     6    1
    96     7     8    2
    97     9    78    1
    98    15    79    1
    99    18    80    1
   100    18    81    1
   101    19    82    1
   102    19    83    1
   103    20    23    1
   104    21    84    1
   105    21    85    1
   106    22    86    1
   107    22    87    1
   108    27    45    1
   109    28    34    1
   110    32    58    1
   111    33    46    2
   112    36    51    1
   113    36    66    1
   114    37    52    1
   115    37    67    1
   116    38    53    1
   117    38    68    1
   118    42    48    1
   119    42    72    1
   120    43    44    2
   121    60    73    1
   122    61    74    1
   123    39    69    1
   124    39    57    1
   125    40    70    1
   126    40    50    1
   127    41    71    1
   128    41    49    1
