@<TRIPOS>MOLECULE
*****
 123 128 0 0 0
SMALL
GASTEIGER

@<TRIPOS>ATOM
     1 C         5.17993   1.710624   0.485593 C.3        1 UNL1     0.0009
     2 C         6.625792   2.495742   -0.368871 C.2        1 UNL1     -0.0787
     3 C         7.90732   2.379559   -1.032373 C.2        1 UNL1     -0.0649
     4 C         8.798295   3.600106   -1.795778 C.2        1 UNL1     -0.0542
     5 C         9.822316   3.875462   -2.735265 C.2        1 UNL1     0.0115
     6 C         10.944951   3.232211   -3.595057 C.3        1 UNL1     -0.0348
     7 C         9.933621   5.353257   -3.352292 C.2        1 UNL1     0.2441
     8 O         10.765524   6.169061   -2.979561 O.2        1 UNL1     -0.2702
     9 N         9.186861   5.559525   -4.525303 N.am        1 UNL1     -0.2772
     10 C         7.90786   5.961657   -4.215836 C.2        1 UNL1     0.1049
     11 C         7.051776   5.00114   -3.917927 C.2        1 UNL1     0.0801
     12 C         6.624567   7.591713   -2.818192 C.ar        1 UNL1     0.0753
     13 C         5.85342   6.474931   -2.363507 C.ar        1 UNL1     0.0305
     14 C         5.957581   5.163486   -2.999364 C.2        1 UNL1     0.0924
     15 N         7.160851   3.669859   -4.067327 N.pl3        1 UNL1     -0.3170
     16 C         5.884532   3.086088   -3.750346 C.3        1 UNL1     0.1275
     17 N         5.256947   4.054856   -2.778055 N.2        1 UNL1     -0.2557
     18 C         5.033727   3.14486   -5.015406 C.3        1 UNL1     0.0016
     19 C         5.782748   2.444922   -6.138191 C.3        1 UNL1     0.0026
     20 N         6.038232   1.066919   -5.742131 N.3        1 UNL1     -0.3018
     21 C         6.798532   0.90758   -4.500791 C.3        1 UNL1     0.0026
     22 C         6.025722   1.614136   -3.385695 C.3        1 UNL1     0.0016
     23 C         6.475476   0.234882   -6.845388 C.3        1 UNL1     0.0012
     24 C         5.318597   -0.009724   -7.826996 C.3        1 UNL1     -0.0339
     25 C         5.405302   0.927136   -9.043069 C.3        1 UNL1     -0.0615
     26 C         5.291351   -1.469185   -8.246532 C.3        1 UNL1     -0.0615
     27 C         6.432407   8.865298   -2.287934 C.ar        1 UNL1     0.1347
     28 C         5.475128   9.151618   -1.331018 C.ar        1 UNL1     0.0342
     29 C         4.761393   8.027803   -0.863272 C.ar        1 UNL1     0.1435
     30 C         4.968149   6.739979   -1.359236 C.ar        1 UNL1     0.0774
     31 O         3.720694   8.158234   -0.011838 O.3        1 UNL1     -0.4436
     32 C         2.986489   6.93193   -0.145983 C.3        1 UNL1     0.3143
     33 C         3.990067   5.924626   -0.669801 C.2        1 UNL1     0.2504
     34 C         5.041928   10.525392   -0.900689 C.3        1 UNL1     -0.0327
     35 O         2.619926   6.508454   1.172938 O.2        1 UNL1     -0.4528
     36 C         -0.64245   4.607004   0.786313 C.3        1 UNL1     0.0854
     37 C         -0.959767   3.343209   -0.102312 C.3        1 UNL1     0.0236
     38 C         -1.574163   2.094129   0.693967 C.3        1 UNL1     0.1131
     39 C         -0.855343   1.565121   1.999999 C.3        1 UNL1     0.0200
     40 C         0.804214   1.402756   2.044146 C.3        1 UNL1     0.0661
     41 C         1.756872   0.615679   0.882009 C.3        1 UNL1     0.0091
     42 C         3.468723   0.95654   0.317401 C.3        1 UNL1     0.0661
     43 C         7.573637   7.36616   -3.936518 C.2        1 UNL1     0.2131
     44 O         7.983549   8.254869   -4.661021 O.2        1 UNL1     -0.2851
     45 O         7.255811   9.888646   -2.752908 O.3        1 UNL1     -0.5056
     46 O         3.993493   4.721964   -0.530354 O.2        1 UNL1     -0.2836
     47 C         5.570273   1.287453   1.927307 C.3        1 UNL1     -0.0566
     48 O         3.902611   -0.45849   0.409855 O.3        1 UNL1     -0.3909
     49 C         0.921678   0.382777   -0.357226 C.3        1 UNL1     -0.0577
     50 O         1.416521   2.617162   2.42888 O.3        1 UNL1     -0.3910
     51 O         -0.770002   4.428649   2.178919 O.3        1 UNL1     -0.3753
     52 C         0.084229   3.163676   -1.252438 C.3        1 UNL1     -0.0564
     53 O         -2.186478   1.054958   -0.199073 O.3        1 UNL1     -0.4608
     54 C         -2.434731   -0.246825   0.149725 C.2        1 UNL1     0.3042
     55 O         -1.8755   -1.254901   -0.280255 O.2        1 UNL1     -0.2512
     56 C         -3.477567   -0.394011   1.22096 C.3        1 UNL1     0.0332
     57 C         -1.570797   2.250587   3.255561 C.3        1 UNL1     -0.0567
     58 C         1.915059   7.180276   -1.233131 C.3        1 UNL1     0.0210
     59 C         -1.071817   5.616125   2.910133 C.3        1 UNL1     0.0372
     60 C         0.693218   5.22067   0.552718 C.2        1 UNL1     -0.0208
     61 C         1.609653   5.652719   1.420026 C.2        1 UNL1     0.0882
     62 H         4.714099   2.700256   0.565224 H        1 UNL1     0.0365
     63 H         6.370322   3.552963   -0.271463 H        1 UNL1     0.0576
     64 H         8.355209   1.406473   -1.245926 H        1 UNL1     0.0615
     65 H         8.320311   4.522954   -1.456122 H        1 UNL1     0.0622
     66 H         -1.379018   5.358917   0.469863 H        1 UNL1     0.0645
     67 H         -1.821413   3.65707   -0.716817 H        1 UNL1     0.0362
     68 H         -2.517053   2.543275   1.041455 H        1 UNL1     0.0741
     69 H         -1.197496   0.558932   2.202291 H        1 UNL1     0.0359
     70 H         0.908213   0.747679   2.930216 H        1 UNL1     0.0600
     71 H         1.789449   -0.402776   1.316342 H        1 UNL1     0.0348
     72 H         3.366827   1.452863   1.293411 H        1 UNL1     0.0602
     73 H         0.814264   5.409212   -0.485092 H        1 UNL1     0.0628
     74 H         1.588777   5.449969   2.491331 H        1 UNL1     0.1022
     75 H         10.959232   2.124308   -3.455837 H        1 UNL1     0.0279
     76 H         10.847022   3.331517   -4.673768 H        1 UNL1     0.0279
     77 H         11.953308   3.506805   -3.252254 H        1 UNL1     0.0279
     78 H         9.11645   4.686499   -5.043902 H        1 UNL1     0.1553
     79 H         7.822334   3.230586   -4.680851 H        1 UNL1     0.1484
     80 H         4.06722   2.665281   -4.81885 H        1 UNL1     0.0317
     81 H         4.818127   4.181913   -5.294131 H        1 UNL1     0.0317
     82 H         6.719114   2.964792   -6.388923 H        1 UNL1     0.0428
     83 H         5.159161   2.500076   -7.031022 H        1 UNL1     0.0428
     84 H         6.907744   -0.1343   -4.183979 H        1 UNL1     0.0428
     85 H         7.83248   1.264208   -4.606069 H        1 UNL1     0.0428
     86 H         6.538553   1.365018   -2.475238 H        1 UNL1     0.0317
     87 H         5.041264   1.147544   -3.258298 H        1 UNL1     0.0317
     88 H         7.277659   0.764619   -7.375648 H        1 UNL1     0.0429
     89 H         6.897906   -0.712746   -6.487158 H        1 UNL1     0.0429
     90 H         4.36714   0.17207   -7.313291 H        1 UNL1     0.0308
     91 H         6.359802   0.81325   -9.565622 H        1 UNL1     0.0233
     92 H         4.588437   0.730315   -9.741353 H        1 UNL1     0.0233
     93 H         5.32013   1.984063   -8.762913 H        1 UNL1     0.0233
     94 H         4.598754   -1.60869   -9.083601 H        1 UNL1     0.0233
     95 H         6.286075   -1.781779   -8.576337 H        1 UNL1     0.0233
     96 H         4.973188   -2.115126   -7.423428 H        1 UNL1     0.0233
     97 H         4.241036   10.489291   -0.168228 H        1 UNL1     0.0280
     98 H         5.857547   11.086993   -0.426742 H        1 UNL1     0.0280
     99 H         4.68388   11.090731   -1.776639 H        1 UNL1     0.0280
     100 H         6.796918   10.642218   -3.080276 H        1 UNL1     0.2922
     101 H         4.699456   0.877873   2.438755 H        1 UNL1     0.0236
     102 H         6.039782   2.088741   2.496941 H        1 UNL1     0.0236
     103 H         6.308933   0.468586   1.932892 H        1 UNL1     0.0236
     104 H         4.314481   -0.583991   1.287113 H        1 UNL1     0.2098
     105 H         0.708822   1.28141   -0.930779 H        1 UNL1     0.0234
     106 H         1.290354   -0.405631   -1.013288 H        1 UNL1     0.0234
     107 H         0.0   -0.0   0.0 H        1 UNL1     0.0234
     108 H         1.240508   3.267521   1.721899 H        1 UNL1     0.2098
     109 H         1.109005   3.054758   -0.870754 H        1 UNL1     0.0234
     110 H         -0.149428   2.326503   -1.918987 H        1 UNL1     0.0234
     111 H         0.1064   4.036297   -1.918762 H        1 UNL1     0.0234
     112 H         -3.612159   -1.451814   1.466487 H        1 UNL1     0.0342
     113 H         -3.235687   0.185826   2.110412 H        1 UNL1     0.0342
     114 H         -4.430681   -0.015996   0.82619 H        1 UNL1     0.0342
     115 H         -2.642967   2.013636   3.294223 H        1 UNL1     0.0234
     116 H         -1.138285   1.973288   4.218934 H        1 UNL1     0.0234
     117 H         -1.59797   3.352403   3.198943 H        1 UNL1     0.0234
     118 H         1.017977   7.678013   -0.825078 H        1 UNL1     0.0309
     119 H         2.290973   7.759601   -2.082411 H        1 UNL1     0.0309
     120 H         1.518456   6.249346   -1.65287 H        1 UNL1     0.0309
     121 H         -0.226608   6.294968   2.79991 H        1 UNL1     0.0524
     122 H         -1.964995   6.131997   2.520072 H        1 UNL1     0.0524
     123 H         -1.229973   5.381675   3.958996 H        1 UNL1     0.0524
@<TRIPOS>BOND
     1     1     2    1
     2     1    42    1
     3     2     3    2
     4     3     4    1
     5     4     5    2
     6     5     7    1
     7     6    75    1
     8     6    76    1
     9     6    77    1
    10     7     9   am
    11     9    10    1
    12    10    11    2
    13    10    43    1
    14    11    14    1
    15    11    15    1
    16    12    13   ar
    17    12    27   ar
    18    12    43    1
    19    13    14    1
    20    13    30   ar
    21    14    17    2
    22    15    16    1
    23    16    17    1
    24    16    18    1
    25    16    22    1
    26    18    19    1
    27    19    20    1
    28    20    21    1
    29    21    22    1
    30    23    24    1
    31    23    88    1
    32    23    89    1
    33    24    25    1
    34    24    26    1
    35    24    90    1
    36    25    91    1
    37    25    92    1
    38    25    93    1
    39    26    94    1
    40    26    95    1
    41    26    96    1
    42    27    28   ar
    43    28    29   ar
    44    29    30   ar
    45    29    31    1
    46    30    33    1
    47    31    32    1
    48    32    33    1
    49    32    35    1
    50    34    97    1
    51    34    98    1
    52    34    99    1
    53    35    61    1
    54    36    37    1
    55    36    60    1
    56    37    38    1
    57    38    39    1
    58    39    40    1
    59    40    41    1
    60    41    42    1
    61    45   100    1
    62    47   101    1
    63    47   102    1
    64    47   103    1
    65    48   104    1
    66    49   105    1
    67    49   106    1
    68    49   107    1
    69    50   108    1
    70    51    59    1
    71    52   109    1
    72    52   110    1
    73    52   111    1
    74    53    54    1
    75    54    55    2
    76    54    56    1
    77    56   112    1
    78    56   113    1
    79    56   114    1
    80    57   115    1
    81    57   116    1
    82    57   117    1
    83    58   118    1
    84    58   119    1
    85    58   120    1
    86    59   121    1
    87    59   122    1
    88    59   123    1
    89    60    61    2
    90     1    47    1
    91     1    62    1
    92     2    63    1
    93     3    64    1
    94     4    65    1
    95     5     6    1
    96     7     8    2
    97     9    78    1
    98    15    79    1
    99    18    80    1
   100    18    81    1
   101    19    82    1
   102    19    83    1
   103    20    23    1
   104    21    84    1
   105    21    85    1
   106    22    86    1
   107    22    87    1
   108    27    45    1
   109    28    34    1
   110    32    58    1
   111    33    46    2
   112    36    51    1
   113    36    66    1
   114    37    52    1
   115    37    67    1
   116    38    53    1
   117    38    68    1
   118    42    48    1
   119    42    72    1
   120    43    44    2
   121    60    73    1
   122    61    74    1
   123    39    69    1
   124    39    57    1
   125    40    70    1
   126    40    50    1
   127    41    71    1
   128    41    49    1
