@<TRIPOS>MOLECULE
*****
 123 128 0 0 0
SMALL
GASTEIGER

@<TRIPOS>ATOM
     1 C         5.15358   1.803069   0.434541 C.3        1 UNL1     0.0009
     2 C         6.583636   2.593974   -0.440928 C.2        1 UNL1     -0.0787
     3 C         7.865994   2.485468   -1.104125 C.2        1 UNL1     -0.0649
     4 C         8.733523   3.703724   -1.8976 C.2        1 UNL1     -0.0542
     5 C         9.750894   3.975489   -2.845322 C.2        1 UNL1     0.0115
     6 C         10.883607   3.332689   -3.692135 C.3        1 UNL1     -0.0348
     7 C         9.83446   5.440231   -3.496888 C.2        1 UNL1     0.2441
     8 O         10.652062   6.279403   -3.144976 O.2        1 UNL1     -0.2702
     9 N         9.082218   5.60552   -4.672883 N.am        1 UNL1     -0.2772
     10 C         7.796648   5.991624   -4.370302 C.2        1 UNL1     0.1049
     11 C         6.958557   5.023036   -4.048333 C.2        1 UNL1     0.0801
     12 C         6.48631   7.630467   -3.008487 C.ar        1 UNL1     0.0753
     13 C         5.73622   6.510879   -2.52631 C.ar        1 UNL1     0.0305
     14 C         5.863073   5.187028   -3.131602 C.2        1 UNL1     0.0924
     15 N         7.09146   3.690813   -4.166847 N.pl3        1 UNL1     -0.3170
     16 C         5.826419   3.091669   -3.833754 C.3        1 UNL1     0.1275
     17 N         5.182964   4.071407   -2.883069 N.2        1 UNL1     -0.2557
     18 C         4.97267   3.105498   -5.098121 C.3        1 UNL1     0.0016
     19 C         5.732437   2.393147   -6.205777 C.3        1 UNL1     0.0026
     20 N         6.01344   1.029611   -5.778187 N.3        1 UNL1     -0.3018
     21 C         6.778479   0.91307   -4.535005 C.3        1 UNL1     0.0026
     22 C         5.994796   1.631427   -3.435142 C.3        1 UNL1     0.0016
     23 C         6.463903   0.180048   -6.862608 C.3        1 UNL1     0.0012
     24 C         5.310072   -0.108268   -7.835904 C.3        1 UNL1     -0.0339
     25 C         5.39756   0.777167   -9.089861 C.3        1 UNL1     -0.0615
     26 C         5.287386   -1.584051   -8.194136 C.3        1 UNL1     -0.0615
     27 C         6.271988   8.912419   -2.507705 C.ar        1 UNL1     0.1347
     28 C         5.311215   9.203698   -1.5558 C.ar        1 UNL1     0.0342
     29 C         4.618675   8.078421   -1.060517 C.ar        1 UNL1     0.1435
     30 C         4.847904   6.7833   -1.526712 C.ar        1 UNL1     0.0774
     31 O         3.577148   8.209907   -0.210259 O.3        1 UNL1     -0.4436
     32 C         2.865035   6.967752   -0.31427 C.3        1 UNL1     0.3143
     33 C         3.885834   5.966761   -0.816465 C.2        1 UNL1     0.2504
     34 C         4.853921   10.57911   -1.156771 C.3        1 UNL1     -0.0327
     35 O         2.5083   6.568665   1.01491 O.2        1 UNL1     -0.4528
     36 C         -0.719757   4.600128   0.679348 C.3        1 UNL1     0.0854
     37 C         -1.015578   3.310392   -0.178902 C.3        1 UNL1     0.0236
     38 C         -1.606004   2.069374   0.647546 C.3        1 UNL1     0.1131
     39 C         -0.875646   1.58409   1.964112 C.3        1 UNL1     0.0200
     40 C         0.786644   1.452779   2.008686 C.3        1 UNL1     0.0661
     41 C         1.751528   0.656084   0.863309 C.3        1 UNL1     0.0091
     42 C         3.456029   1.014499   0.287447 C.3        1 UNL1     0.0661
     43 C         7.437517   7.39601   -4.123159 C.2        1 UNL1     0.2131
     44 O         7.830127   8.2748   -4.869029 O.2        1 UNL1     -0.2851
     45 O         7.076001   9.939318   -2.998094 O.3        1 UNL1     -0.5056
     46 O         3.911239   4.767943   -0.649 O.2        1 UNL1     -0.2836
     47 C         5.553817   1.420816   1.884946 C.3        1 UNL1     -0.0566
     48 O         3.915592   -0.389923   0.412018 O.3        1 UNL1     -0.3909
     49 C         0.918707   0.379252   -0.368464 C.3        1 UNL1     -0.0577
     50 O         1.377495   2.686697   2.363739 O.3        1 UNL1     -0.3910
     51 O         -0.841838   4.45209   2.075992 O.3        1 UNL1     -0.3753
     52 C         0.029657   3.122905   -1.326631 C.3        1 UNL1     -0.0564
     53 O         -2.200845   0.998737   -0.219765 O.3        1 UNL1     -0.4608
     54 C         -2.393686   -0.307052   0.14855 C.2        1 UNL1     0.3042
     55 O         -1.712009   -1.280993   -0.168619 O.2        1 UNL1     -0.2512
     56 C         -3.548462   -0.502291   1.089341 C.3        1 UNL1     0.0332
     57 C         -1.601378   2.285682   3.204779 C.3        1 UNL1     -0.0567
     58 C         1.787553   7.171249   -1.404752 C.3        1 UNL1     0.0210
     59 C         -1.163918   5.650687   2.779905 C.3        1 UNL1     0.0372
     60 C         0.604216   5.232175   0.428801 C.2        1 UNL1     -0.0208
     61 C         1.514069   5.700843   1.283939 C.2        1 UNL1     0.0882
     62 H         4.67005   2.785723   0.491998 H        1 UNL1     0.0365
     63 H         6.309238   3.648399   -0.3677 H        1 UNL1     0.0576
     64 H         8.331073   1.515899   -1.295816 H        1 UNL1     0.0615
     65 H         8.239466   4.62548   -1.578606 H        1 UNL1     0.0622
     66 H         -1.470311   5.331024   0.346926 H        1 UNL1     0.0645
     67 H         -1.883741   3.594205   -0.798823 H        1 UNL1     0.0362
     68 H         -2.556309   2.509427   0.986361 H        1 UNL1     0.0741
     69 H         -1.199217   0.57689   2.190518 H        1 UNL1     0.0359
     70 H         0.903892   0.82057   2.909588 H        1 UNL1     0.0600
     71 H         1.803218   -0.35119   1.321223 H        1 UNL1     0.0348
     72 H         3.34673   1.531573   1.251813 H        1 UNL1     0.0602
     73 H         0.720174   5.398568   -0.613368 H        1 UNL1     0.0628
     74 H         1.498575   5.522837   2.359724 H        1 UNL1     0.1022
     75 H         10.885579   2.223088   -3.566378 H        1 UNL1     0.0279
     76 H         10.806594   3.446019   -4.77116 H        1 UNL1     0.0279
     77 H         11.887798   3.593994   -3.327415 H        1 UNL1     0.0279
     78 H         9.026784   4.719486   -5.170826 H        1 UNL1     0.1553
     79 H         7.7598   3.249334   -4.771289 H        1 UNL1     0.1484
     80 H         4.015312   2.613277   -4.888477 H        1 UNL1     0.0317
     81 H         4.737899   4.131695   -5.400534 H        1 UNL1     0.0317
     82 H         6.658843   2.923832   -6.470463 H        1 UNL1     0.0428
     83 H         5.106529   2.41616   -7.098392 H        1 UNL1     0.0428
     84 H         6.907028   -0.118981   -4.194188 H        1 UNL1     0.0428
     85 H         7.805638   1.285744   -4.650663 H        1 UNL1     0.0428
     86 H         6.513503   1.412948   -2.520156 H        1 UNL1     0.0317
     87 H         5.019145   1.150247   -3.294904 H        1 UNL1     0.0317
     88 H         7.255523   0.711642   -7.406704 H        1 UNL1     0.0429
     89 H         6.903978   -0.751171   -6.483217 H        1 UNL1     0.0429
     90 H         4.356899   0.092447   -7.332528 H        1 UNL1     0.0308
     91 H         6.414758   0.797291   -9.492359 H        1 UNL1     0.0233
     92 H         4.712922   0.420655   -9.863022 H        1 UNL1     0.0233
     93 H         5.115002   1.81732   -8.887183 H        1 UNL1     0.0233
     94 H         4.757295   -1.734829   -9.140765 H        1 UNL1     0.0233
     95 H         6.308981   -1.954428   -8.317129 H        1 UNL1     0.0233
     96 H         4.788453   -2.174783   -7.420787 H        1 UNL1     0.0233
     97 H         4.006713   10.545944   -0.478266 H        1 UNL1     0.0280
     98 H         5.638047   11.139686   -0.631264 H        1 UNL1     0.0280
     99 H         4.555286   11.143819   -2.055111 H        1 UNL1     0.0280
     100 H         6.606121   10.706282   -3.274862 H        1 UNL1     0.2922
     101 H         4.670757   1.101385   2.437961 H        1 UNL1     0.0236
     102 H         6.096608   2.211221   2.402268 H        1 UNL1     0.0236
     103 H         6.230904   0.550753   1.912059 H        1 UNL1     0.0236
     104 H         4.248543   -0.511642   1.322676 H        1 UNL1     0.2098
     105 H         0.698849   1.258461   -0.968852 H        1 UNL1     0.0234
     106 H         1.29396   -0.425564   -1.000432 H        1 UNL1     0.0234
     107 H         0.0   -0.0   0.0 H        1 UNL1     0.0234
     108 H         1.22767   3.304148   1.622069 H        1 UNL1     0.2098
     109 H         1.056844   3.041449   -0.944579 H        1 UNL1     0.0234
     110 H         -0.18988   2.266304   -1.972991 H        1 UNL1     0.0234
     111 H         0.034974   3.979975   -2.013179 H        1 UNL1     0.0234
     112 H         -3.634001   -1.559258   1.359249 H        1 UNL1     0.0342
     113 H         -3.463253   0.122084   1.977451 H        1 UNL1     0.0342
     114 H         -4.470105   -0.21269   0.566017 H        1 UNL1     0.0342
     115 H         -2.688432   2.127216   3.185014 H        1 UNL1     0.0234
     116 H         -1.238426   1.951087   4.178617 H        1 UNL1     0.0234
     117 H         -1.546205   3.38765   3.181017 H        1 UNL1     0.0234
     118 H         0.77628   7.275364   -0.974063 H        1 UNL1     0.0309
     119 H         1.990229   8.028716   -2.054271 H        1 UNL1     0.0309
     120 H         1.691653   6.304528   -2.067854 H        1 UNL1     0.0309
     121 H         -0.789957   5.545745   3.79799 H        1 UNL1     0.0524
     122 H         -0.680303   6.537953   2.338417 H        1 UNL1     0.0524
     123 H         -2.239399   5.803466   2.789514 H        1 UNL1     0.0524
@<TRIPOS>BOND
     1     1     2    1
     2     1    42    1
     3     2     3    2
     4     3     4    1
     5     4     5    2
     6     5     7    1
     7     6    75    1
     8     6    76    1
     9     6    77    1
    10     7     9   am
    11     9    10    1
    12    10    11    2
    13    10    43    1
    14    11    14    1
    15    11    15    1
    16    12    13   ar
    17    12    27   ar
    18    12    43    1
    19    13    14    1
    20    13    30   ar
    21    14    17    2
    22    15    16    1
    23    16    17    1
    24    16    18    1
    25    16    22    1
    26    18    19    1
    27    19    20    1
    28    20    21    1
    29    21    22    1
    30    23    24    1
    31    23    88    1
    32    23    89    1
    33    24    25    1
    34    24    26    1
    35    24    90    1
    36    25    91    1
    37    25    92    1
    38    25    93    1
    39    26    94    1
    40    26    95    1
    41    26    96    1
    42    27    28   ar
    43    28    29   ar
    44    29    30   ar
    45    29    31    1
    46    30    33    1
    47    31    32    1
    48    32    33    1
    49    32    35    1
    50    34    97    1
    51    34    98    1
    52    34    99    1
    53    35    61    1
    54    36    37    1
    55    36    60    1
    56    37    38    1
    57    38    39    1
    58    39    40    1
    59    40    41    1
    60    41    42    1
    61    45   100    1
    62    47   101    1
    63    47   102    1
    64    47   103    1
    65    48   104    1
    66    49   105    1
    67    49   106    1
    68    49   107    1
    69    50   108    1
    70    51    59    1
    71    52   109    1
    72    52   110    1
    73    52   111    1
    74    53    54    1
    75    54    55    2
    76    54    56    1
    77    56   112    1
    78    56   113    1
    79    56   114    1
    80    57   115    1
    81    57   116    1
    82    57   117    1
    83    58   118    1
    84    58   119    1
    85    58   120    1
    86    59   121    1
    87    59   122    1
    88    59   123    1
    89    60    61    2
    90     1    47    1
    91     1    62    1
    92     2    63    1
    93     3    64    1
    94     4    65    1
    95     5     6    1
    96     7     8    2
    97     9    78    1
    98    15    79    1
    99    18    80    1
   100    18    81    1
   101    19    82    1
   102    19    83    1
   103    20    23    1
   104    21    84    1
   105    21    85    1
   106    22    86    1
   107    22    87    1
   108    27    45    1
   109    28    34    1
   110    32    58    1
   111    33    46    2
   112    36    51    1
   113    36    66    1
   114    37    52    1
   115    37    67    1
   116    38    53    1
   117    38    68    1
   118    42    48    1
   119    42    72    1
   120    43    44    2
   121    60    73    1
   122    61    74    1
   123    39    69    1
   124    39    57    1
   125    40    70    1
   126    40    50    1
   127    41    71    1
   128    41    49    1
