@<TRIPOS>MOLECULE
*****
 123 128 0 0 0
SMALL
GASTEIGER

@<TRIPOS>ATOM
     1 C         -0.340238   1.919874   3.756483 C.3        1 UNL1     0.0009
     2 C         -1.865903   2.116538   4.791233 C.2        1 UNL1     -0.0787
     3 C         -2.940843   2.94232   5.299795 C.2        1 UNL1     -0.0649
     4 C         -4.266595   2.463398   6.237544 C.2        1 UNL1     -0.0542
     5 C         -5.575208   2.805944   6.658582 C.2        1 UNL1     0.0115
     6 C         -6.633251   3.943336   6.672986 C.3        1 UNL1     -0.0348
     7 C         -6.518891   1.660863   7.271149 C.2        1 UNL1     0.2441
     8 O         -6.720452   1.536136   8.471292 O.2        1 UNL1     -0.2702
     9 N         -7.303204   0.976221   6.326549 N.am        1 UNL1     -0.2772
     10 C         -6.610441   -0.096626   5.814298 C.2        1 UNL1     0.1049
     11 C         -5.772154   0.168702   4.828855 C.2        1 UNL1     0.0801
     12 C         -5.248843   -2.08361   6.489044 C.ar        1 UNL1     0.0753
     13 C         -4.268921   -1.633389   5.547948 C.ar        1 UNL1     0.0305
     14 C         -4.558527   -0.565542   4.593547 C.2        1 UNL1     0.0924
     15 N         -5.629339   1.284374   4.093051 N.pl3        1 UNL1     -0.3170
     16 C         -4.694966   0.997711   3.037103 C.3        1 UNL1     0.1275
     17 N         -3.815112   -0.093223   3.596965 N.2        1 UNL1     -0.2557
     18 C         -5.483312   0.362111   1.895952 C.3        1 UNL1     0.0016
     19 C         -6.609416   1.303492   1.499366 C.3        1 UNL1     0.0026
     20 N         -6.032685   2.57725   1.091997 N.3        1 UNL1     -0.3018
     21 C         -5.204719   3.236821   2.10383 C.3        1 UNL1     0.0026
     22 C         -4.077397   2.275367   2.484156 C.3        1 UNL1     0.0016
     23 C         -6.9842   3.43679   0.416383 C.3        1 UNL1     0.0012
     24 C         -7.326142   2.874791   -0.972497 C.3        1 UNL1     -0.0339
     25 C         -7.582496   4.001022   -1.987359 C.3        1 UNL1     -0.0615
     26 C         -6.225029   1.939691   -1.441454 C.3        1 UNL1     -0.0615
     27 C         -5.007958   -3.180743   7.31269 C.ar        1 UNL1     0.1347
     28 C         -3.845346   -3.928704   7.258478 C.ar        1 UNL1     0.0342
     29 C         -2.875354   -3.437477   6.359046 C.ar        1 UNL1     0.1435
     30 C         -3.088426   -2.318164   5.553467 C.ar        1 UNL1     0.0774
     31 O         -1.734946   -4.118082   6.111554 O.3        1 UNL1     -0.4436
     32 C         -1.263767   -3.593675   4.86101 C.3        1 UNL1     0.3143
     33 C         -1.889898   -2.218473   4.747019 C.2        1 UNL1     0.2504
     34 C         -3.619518   -5.256895   7.925568 C.3        1 UNL1     -0.0327
     35 O         0.150336   -3.399138   4.986393 O.2        1 UNL1     -0.4528
     36 C         1.579574   -3.877912   1.502696 C.3        1 UNL1     0.0854
     37 C         1.225257   -3.117318   0.167227 C.3        1 UNL1     0.0236
     38 C         2.475355   -2.446899   -0.580796 C.3        1 UNL1     0.1131
     39 C         3.465695   -1.514474   0.226719 C.3        1 UNL1     0.0200
     40 C         2.874399   -0.381619   1.298842 C.3        1 UNL1     0.0661
     41 C         1.65229   0.749551   0.975556 C.3        1 UNL1     0.0091
     42 C         0.381751   1.477326   2.080761 C.3        1 UNL1     0.0661
     43 C         -6.565256   -1.398581   6.496373 C.2        1 UNL1     0.2131
     44 O         -7.583224   -1.901444   6.93638 O.2        1 UNL1     -0.2851
     45 O         -5.995668   -3.525745   8.232929 O.3        1 UNL1     -0.5056
     46 O         -1.480163   -1.251557   4.144488 O.2        1 UNL1     -0.2836
     47 C         0.877048   2.578092   4.460007 C.3        1 UNL1     -0.0566
     48 O         0.627258   2.869999   1.634326 O.3        1 UNL1     -0.3909
     49 C         0.950295   0.356889   -0.305269 C.3        1 UNL1     -0.0577
     50 O         2.676546   -0.955113   2.575431 O.3        1 UNL1     -0.3910
     51 O         2.903695   -3.729745   1.963329 O.3        1 UNL1     -0.3753
     52 C         -0.168536   -2.41353   0.250715 C.3        1 UNL1     -0.0564
     53 O         2.182305   -2.043169   -1.996229 O.3        1 UNL1     -0.4608
     54 C         3.024922   -1.333583   -2.811345 C.2        1 UNL1     0.3042
     55 O         2.954508   -0.139733   -3.100483 O.2        1 UNL1     -0.2512
     56 C         4.175784   -2.143157   -3.337482 C.3        1 UNL1     0.0332
     57 C         4.699003   -2.416158   0.700101 C.3        1 UNL1     -0.0567
     58 C         -1.851406   -4.502498   3.756361 C.3        1 UNL1     0.0210
     59 C         3.390635   -4.817497   2.7479 C.3        1 UNL1     0.0372
     60 C         0.687761   -3.574239   2.654917 C.2        1 UNL1     -0.0208
     61 C         0.980821   -3.313194   3.92956 C.2        1 UNL1     0.0882
     62 H         -0.319023   0.856552   4.024078 H        1 UNL1     0.0365
     63 H         -1.92999   1.127418   5.249494 H        1 UNL1     0.0576
     64 H         -3.077068   3.973653   4.966778 H        1 UNL1     0.0615
     65 H         -3.994828   1.461407   6.580528 H        1 UNL1     0.0622
     66 H         1.417044   -4.939163   1.267377 H        1 UNL1     0.0645
     67 H         0.954794   -3.923444   -0.536742 H        1 UNL1     0.0362
     68 H         3.054917   -3.352116   -0.81789 H        1 UNL1     0.0741
     69 H         4.02324   -0.908522   -0.474976 H        1 UNL1     0.0359
     70 H         3.771909   0.255092   1.417733 H        1 UNL1     0.0600
     71 H         2.266618   1.605176   0.632826 H        1 UNL1     0.0348
     72 H         1.16604   1.079471   2.741002 H        1 UNL1     0.0602
     73 H         -0.32281   -3.71322   2.360503 H        1 UNL1     0.0628
     74 H         1.983987   -3.100485   4.300572 H        1 UNL1     0.1022
     75 H         -6.168996   4.906554   6.99503 H        1 UNL1     0.0279
     76 H         -7.076554   4.205703   5.715012 H        1 UNL1     0.0279
     77 H         -7.399362   3.801682   7.44933 H        1 UNL1     0.0279
     78 H         -7.523824   1.597086   5.550707 H        1 UNL1     0.1553
     79 H         -6.332767   1.996082   4.018255 H        1 UNL1     0.1484
     80 H         -4.805169   0.172267   1.05521 H        1 UNL1     0.0317
     81 H         -5.890857   -0.609407   2.19547 H        1 UNL1     0.0317
     82 H         -7.332902   1.43987   2.316606 H        1 UNL1     0.0428
     83 H         -7.159752   0.830086   0.68569 H        1 UNL1     0.0428
     84 H         -4.71948   4.150279   1.746129 H        1 UNL1     0.0428
     85 H         -5.799998   3.570591   2.964967 H        1 UNL1     0.0428
     86 H         -3.420394   2.837282   3.121798 H        1 UNL1     0.0317
     87 H         -3.456209   2.060232   1.606125 H        1 UNL1     0.0317
     88 H         -7.90283   3.467667   1.016767 H        1 UNL1     0.0429
     89 H         -6.611243   4.466702   0.345972 H        1 UNL1     0.0429
     90 H         -8.230427   2.259193   -0.898206 H        1 UNL1     0.0308
     91 H         -6.813293   4.776502   -1.923651 H        1 UNL1     0.0233
     92 H         -7.609146   3.605082   -3.005263 H        1 UNL1     0.0233
     93 H         -8.547698   4.496365   -1.826562 H        1 UNL1     0.0233
     94 H         -5.340769   2.515173   -1.735973 H        1 UNL1     0.0233
     95 H         -5.934607   1.267466   -0.629216 H        1 UNL1     0.0233
     96 H         -6.548076   1.34034   -2.29725 H        1 UNL1     0.0233
     97 H         -3.367435   -6.034347   7.210549 H        1 UNL1     0.0280
     98 H         -2.78698   -5.224683   8.64048 H        1 UNL1     0.0280
     99 H         -4.534334   -5.561956   8.459557 H        1 UNL1     0.0280
     100 H         -6.317932   -2.807809   8.749007 H        1 UNL1     0.2922
     101 H         1.515648   1.806033   4.888692 H        1 UNL1     0.0236
     102 H         0.592178   3.328702   5.196496 H        1 UNL1     0.0236
     103 H         1.526249   3.114923   3.748288 H        1 UNL1     0.0236
     104 H         1.114438   2.826983   0.788291 H        1 UNL1     0.2098
     105 H         0.790046   1.177984   -0.999484 H        1 UNL1     0.0234
     106 H         1.390565   -0.495143   -0.823082 H        1 UNL1     0.0234
     107 H         0.0   -0.0   0.0 H        1 UNL1     0.0234
     108 H         2.124891   -0.334747   3.089815 H        1 UNL1     0.2098
     109 H         -0.72768   -2.703509   1.151261 H        1 UNL1     0.0234
     110 H         -0.103273   -1.321532   0.19572 H        1 UNL1     0.0234
     111 H         -0.810449   -2.684919   -0.597956 H        1 UNL1     0.0234
     112 H         4.818529   -1.514608   -3.961301 H        1 UNL1     0.0342
     113 H         4.746145   -2.612361   -2.537244 H        1 UNL1     0.0342
     114 H         3.770559   -2.944011   -3.971194 H        1 UNL1     0.0342
     115 H         5.636368   -1.843674   0.728303 H        1 UNL1     0.0234
     116 H         4.563628   -2.873081   1.682417 H        1 UNL1     0.0234
     117 H         4.959141   -3.215868   -0.014555 H        1 UNL1     0.0234
     118 H         -1.074193   -5.114374   3.265898 H        1 UNL1     0.0309
     119 H         -2.648307   -5.159358   4.119245 H        1 UNL1     0.0309
     120 H         -2.283345   -3.931048   2.927518 H        1 UNL1     0.0309
     121 H         3.113643   -4.626429   3.7843 H        1 UNL1     0.0524
     122 H         2.938343   -5.779737   2.455387 H        1 UNL1     0.0524
     123 H         4.470444   -4.893158   2.656348 H        1 UNL1     0.0524
@<TRIPOS>BOND
     1     1     2    1
     2     1    42    1
     3     2     3    2
     4     3     4    1
     5     4     5    2
     6     5     7    1
     7     6    75    1
     8     6    76    1
     9     6    77    1
    10     7     9   am
    11     9    10    1
    12    10    11    2
    13    10    43    1
    14    11    14    1
    15    11    15    1
    16    12    13   ar
    17    12    27   ar
    18    12    43    1
    19    13    14    1
    20    13    30   ar
    21    14    17    2
    22    15    16    1
    23    16    17    1
    24    16    18    1
    25    16    22    1
    26    18    19    1
    27    19    20    1
    28    20    21    1
    29    21    22    1
    30    23    24    1
    31    23    88    1
    32    23    89    1
    33    24    25    1
    34    24    26    1
    35    24    90    1
    36    25    91    1
    37    25    92    1
    38    25    93    1
    39    26    94    1
    40    26    95    1
    41    26    96    1
    42    27    28   ar
    43    28    29   ar
    44    29    30   ar
    45    29    31    1
    46    30    33    1
    47    31    32    1
    48    32    33    1
    49    32    35    1
    50    34    97    1
    51    34    98    1
    52    34    99    1
    53    35    61    1
    54    36    37    1
    55    36    60    1
    56    37    38    1
    57    38    39    1
    58    39    40    1
    59    40    41    1
    60    41    42    1
    61    45   100    1
    62    47   101    1
    63    47   102    1
    64    47   103    1
    65    48   104    1
    66    49   105    1
    67    49   106    1
    68    49   107    1
    69    50   108    1
    70    51    59    1
    71    52   109    1
    72    52   110    1
    73    52   111    1
    74    53    54    1
    75    54    55    2
    76    54    56    1
    77    56   112    1
    78    56   113    1
    79    56   114    1
    80    57   115    1
    81    57   116    1
    82    57   117    1
    83    58   118    1
    84    58   119    1
    85    58   120    1
    86    59   121    1
    87    59   122    1
    88    59   123    1
    89    60    61    2
    90     1    47    1
    91     1    62    1
    92     2    63    1
    93     3    64    1
    94     4    65    1
    95     5     6    1
    96     7     8    2
    97     9    78    1
    98    15    79    1
    99    18    80    1
   100    18    81    1
   101    19    82    1
   102    19    83    1
   103    20    23    1
   104    21    84    1
   105    21    85    1
   106    22    86    1
   107    22    87    1
   108    27    45    1
   109    28    34    1
   110    32    58    1
   111    33    46    2
   112    36    51    1
   113    36    66    1
   114    37    52    1
   115    37    67    1
   116    38    53    1
   117    38    68    1
   118    42    48    1
   119    42    72    1
   120    43    44    2
   121    60    73    1
   122    61    74    1
   123    39    69    1
   124    39    57    1
   125    40    70    1
   126    40    50    1
   127    41    71    1
   128    41    49    1
