@<TRIPOS>MOLECULE
*****
 123 128 0 0 0
SMALL
GASTEIGER

@<TRIPOS>ATOM
     1 C         5.142583   1.820247   0.498 C.3        1 UNL1     0.0009
     2 C         6.560302   2.666229   -0.34546 C.2        1 UNL1     -0.0787
     3 C         7.841665   2.602572   -1.016357 C.2        1 UNL1     -0.0649
     4 C         8.692117   3.865095   -1.757388 C.2        1 UNL1     -0.0542
     5 C         9.703081   4.190754   -2.694924 C.2        1 UNL1     0.0115
     6 C         10.840523   3.599719   -3.57255 C.3        1 UNL1     -0.0348
     7 C         9.767182   5.683837   -3.281084 C.2        1 UNL1     0.2441
     8 O         10.57596   6.516297   -2.894542 O.2        1 UNL1     -0.2702
     9 N         9.009175   5.892097   -4.446504 N.am        1 UNL1     -0.2772
     10 C         7.720133   6.249008   -4.123541 C.2        1 UNL1     0.1049
     11 C         6.894614   5.257147   -3.842553 C.2        1 UNL1     0.0801
     12 C         6.394998   7.81008   -2.686736 C.ar        1 UNL1     0.0753
     13 C         5.659786   6.661327   -2.252642 C.ar        1 UNL1     0.0305
     14 C         5.800289   5.367224   -2.916426 C.2        1 UNL1     0.0924
     15 N         7.042866   3.933173   -4.020429 N.pl3        1 UNL1     -0.3170
     16 C         5.786098   3.304768   -3.710757 C.3        1 UNL1     0.1275
     17 N         5.134237   4.23363   -2.715762 N.2        1 UNL1     -0.2557
     18 C         4.928092   3.364431   -4.970903 C.3        1 UNL1     0.0016
     19 C         5.692579   2.711024   -6.11117 C.3        1 UNL1     0.0026
     20 N         5.991087   1.333328   -5.74528 N.3        1 UNL1     -0.3018
     21 C         6.761536   1.17094   -4.510611 C.3        1 UNL1     0.0026
     22 C         5.973037   1.830407   -3.377796 C.3        1 UNL1     0.0016
     23 C         6.447992   0.538125   -6.867569 C.3        1 UNL1     0.0012
     24 C         5.294455   0.279469   -7.849509 C.3        1 UNL1     -0.0339
     25 C         5.296404   1.298945   -9.000475 C.3        1 UNL1     -0.0615
     26 C         5.360467   -1.147183   -8.366311 C.3        1 UNL1     -0.0615
     27 C         6.167185   9.065915   -2.128975 C.ar        1 UNL1     0.1347
     28 C         5.206172   9.303196   -1.162433 C.ar        1 UNL1     0.0342
     29 C         4.528616   8.148868   -0.715658 C.ar        1 UNL1     0.1435
     30 C         4.771604   6.878523   -1.239491 C.ar        1 UNL1     0.0774
     31 O         3.48841   8.230067   0.14247 O.3        1 UNL1     -0.4436
     32 C         2.790693   6.985319   -0.014588 C.3        1 UNL1     0.3143
     33 C         3.821596   6.019853   -0.563521 C.2        1 UNL1     0.2504
     34 C         4.733965   10.653999   -0.701508 C.3        1 UNL1     -0.0327
     35 O         2.443074   6.523458   1.296556 O.2        1 UNL1     -0.4528
     36 C         -0.762572   4.533281   0.882894 C.3        1 UNL1     0.0854
     37 C         -1.045947   3.279419   -0.030918 C.3        1 UNL1     0.0236
     38 C         -1.618939   1.99601   0.741278 C.3        1 UNL1     0.1131
     39 C         -0.878569   1.461599   2.032992 C.3        1 UNL1     0.0200
     40 C         0.785295   1.348325   2.067105 C.3        1 UNL1     0.0661
     41 C         1.755757   0.614787   0.884846 C.3        1 UNL1     0.0091
     42 C         3.453998   1.018734   0.320749 C.3        1 UNL1     0.0661
     43 C         7.345239   7.636661   -3.813336 C.2        1 UNL1     0.2131
     44 O         7.724978   8.552287   -4.52056 O.2        1 UNL1     -0.2851
     45 O         6.957384   10.123084   -2.575535 O.3        1 UNL1     -0.5056
     46 O         3.861722   4.815179   -0.449485 O.2        1 UNL1     -0.2836
     47 C         5.55208   1.378879   1.928904 C.3        1 UNL1     -0.0566
     48 O         3.930539   -0.384235   0.381611 O.3        1 UNL1     -0.3909
     49 C         0.922219   0.382901   -0.355693 C.3        1 UNL1     -0.0577
     50 O         1.362683   2.572265   2.474926 O.3        1 UNL1     -0.3910
     51 O         -0.878299   4.322018   2.271925 O.3        1 UNL1     -0.3753
     52 C         -0.002349   3.155511   -1.188718 C.3        1 UNL1     -0.0564
     53 O         -2.203931   0.957843   -0.171038 O.3        1 UNL1     -0.4608
     54 C         -2.399281   -0.360781   0.146765 C.2        1 UNL1     0.3042
     55 O         -1.809147   -1.33601   -0.316384 O.2        1 UNL1     -0.2512
     56 C         -3.421375   -0.574048   1.226837 C.3        1 UNL1     0.0332
     57 C         -1.60846   2.09877   3.305568 C.3        1 UNL1     -0.0567
     58 C         1.707299   7.224066   -1.091986 C.3        1 UNL1     0.0210
     59 C         -1.243011   5.477367   3.025596 C.3        1 UNL1     0.0372
     60 C         0.553005   5.191598   0.656982 C.2        1 UNL1     -0.0208
     61 C         1.460062   5.632737   1.529558 C.2        1 UNL1     0.0882
     62 H         4.647662   2.793536   0.600337 H        1 UNL1     0.0365
     63 H         6.2737   3.713015   -0.224761 H        1 UNL1     0.0576
     64 H         8.31754   1.648085   -1.252164 H        1 UNL1     0.0615
     65 H         8.188249   4.765829   -1.396445 H        1 UNL1     0.0622
     66 H         -1.522804   5.26917   0.585304 H        1 UNL1     0.0645
     67 H         -1.919439   3.580038   -0.635235 H        1 UNL1     0.0362
     68 H         -2.573261   2.409215   1.101908 H        1 UNL1     0.0741
     69 H         -1.189464   0.441556   2.215378 H        1 UNL1     0.0359
     70 H         0.912972   0.678243   2.938741 H        1 UNL1     0.0600
     71 H         1.820857   -0.411108   1.29747 H        1 UNL1     0.0348
     72 H         3.341767   1.491201   1.307407 H        1 UNL1     0.0602
     73 H         0.66356   5.405407   -0.377093 H        1 UNL1     0.0628
     74 H         1.450212   5.407039   2.596423 H        1 UNL1     0.1022
     75 H         10.90727   2.493529   -3.434989 H        1 UNL1     0.0279
     76 H         10.721709   3.695109   -4.649515 H        1 UNL1     0.0279
     77 H         11.840478   3.919671   -3.244799 H        1 UNL1     0.0279
     78 H         8.962582   5.028411   -4.983117 H        1 UNL1     0.1553
     79 H         7.714387   3.526948   -4.645708 H        1 UNL1     0.1484
     80 H         3.977315   2.851989   -4.780662 H        1 UNL1     0.0317
     81 H         4.680212   4.400146   -5.226834 H        1 UNL1     0.0317
     82 H         6.611771   3.26396   -6.354605 H        1 UNL1     0.0428
     83 H         5.063511   2.766103   -7.000152 H        1 UNL1     0.0428
     84 H         6.903397   0.126404   -4.216279 H        1 UNL1     0.0428
     85 H         7.78383   1.560629   -4.612456 H        1 UNL1     0.0428
     86 H         6.497297   1.577794   -2.474842 H        1 UNL1     0.0317
     87 H         5.003609   1.331852   -3.256353 H        1 UNL1     0.0317
     88 H         7.231479   1.102746   -7.389726 H        1 UNL1     0.0429
     89 H         6.900291   -0.403671   -6.531088 H        1 UNL1     0.0429
     90 H         4.341445   0.360008   -7.313321 H        1 UNL1     0.0308
     91 H         6.244219   1.280262   -9.546735 H        1 UNL1     0.0233
     92 H         4.477807   1.098288   -9.695634 H        1 UNL1     0.0233
     93 H         5.152795   2.327403   -8.64765 H        1 UNL1     0.0233
     94 H         4.664109   -1.278953   -9.201511 H        1 UNL1     0.0233
     95 H         6.368266   -1.366641   -8.729824 H        1 UNL1     0.0233
     96 H         5.102634   -1.86713   -7.58454 H        1 UNL1     0.0233
     97 H         3.944217   10.578379   0.039984 H        1 UNL1     0.0280
     98 H         5.536881   11.233461   -0.22737 H        1 UNL1     0.0280
     99 H         4.346359   11.222979   -1.56239 H        1 UNL1     0.0280
     100 H         6.474592   10.86845   -2.886925 H        1 UNL1     0.2922
     101 H         4.699654   0.921373   2.430617 H        1 UNL1     0.0236
     102 H         5.988827   2.184912   2.517586 H        1 UNL1     0.0236
     103 H         6.323984   0.591385   1.914394 H        1 UNL1     0.0236
     104 H         4.355367   -0.513941   1.252053 H        1 UNL1     0.2098
     105 H         0.710274   1.281978   -0.928887 H        1 UNL1     0.0234
     106 H         1.291675   -0.405088   -1.011821 H        1 UNL1     0.0234
     107 H         0.0   -0.0   0.0 H        1 UNL1     0.0234
     108 H         1.148908   3.235961   1.791131 H        1 UNL1     0.2098
     109 H         1.025777   3.057062   -0.81325 H        1 UNL1     0.0234
     110 H         -0.220706   2.333422   -1.878814 H        1 UNL1     0.0234
     111 H         -0.000716   4.04748   -1.829292 H        1 UNL1     0.0234
     112 H         -3.522737   -1.643024   1.43746 H        1 UNL1     0.0342
     113 H         -3.182383   -0.018359   2.13234 H        1 UNL1     0.0342
     114 H         -4.390481   -0.209927   0.858853 H        1 UNL1     0.0342
     115 H         -2.668475   1.813729   3.353608 H        1 UNL1     0.0234
     116 H         -1.152331   1.829093   4.260173 H        1 UNL1     0.0234
     117 H         -1.685314   3.198893   3.263566 H        1 UNL1     0.0234
     118 H         0.798181   7.687361   -0.670243 H        1 UNL1     0.0309
     119 H         2.062206   7.830827   -1.931084 H        1 UNL1     0.0309
     120 H         1.335755   6.290558   -1.528593 H        1 UNL1     0.0309
     121 H         -0.453625   6.217464   2.897217 H        1 UNL1     0.0524
     122 H         -2.183376   5.929756   2.669091 H        1 UNL1     0.0524
     123 H         -1.350485   5.222346   4.076075 H        1 UNL1     0.0524
@<TRIPOS>BOND
     1     1     2    1
     2     1    42    1
     3     2     3    2
     4     3     4    1
     5     4     5    2
     6     5     7    1
     7     6    75    1
     8     6    76    1
     9     6    77    1
    10     7     9   am
    11     9    10    1
    12    10    11    2
    13    10    43    1
    14    11    14    1
    15    11    15    1
    16    12    13   ar
    17    12    27   ar
    18    12    43    1
    19    13    14    1
    20    13    30   ar
    21    14    17    2
    22    15    16    1
    23    16    17    1
    24    16    18    1
    25    16    22    1
    26    18    19    1
    27    19    20    1
    28    20    21    1
    29    21    22    1
    30    23    24    1
    31    23    88    1
    32    23    89    1
    33    24    25    1
    34    24    26    1
    35    24    90    1
    36    25    91    1
    37    25    92    1
    38    25    93    1
    39    26    94    1
    40    26    95    1
    41    26    96    1
    42    27    28   ar
    43    28    29   ar
    44    29    30   ar
    45    29    31    1
    46    30    33    1
    47    31    32    1
    48    32    33    1
    49    32    35    1
    50    34    97    1
    51    34    98    1
    52    34    99    1
    53    35    61    1
    54    36    37    1
    55    36    60    1
    56    37    38    1
    57    38    39    1
    58    39    40    1
    59    40    41    1
    60    41    42    1
    61    45   100    1
    62    47   101    1
    63    47   102    1
    64    47   103    1
    65    48   104    1
    66    49   105    1
    67    49   106    1
    68    49   107    1
    69    50   108    1
    70    51    59    1
    71    52   109    1
    72    52   110    1
    73    52   111    1
    74    53    54    1
    75    54    55    2
    76    54    56    1
    77    56   112    1
    78    56   113    1
    79    56   114    1
    80    57   115    1
    81    57   116    1
    82    57   117    1
    83    58   118    1
    84    58   119    1
    85    58   120    1
    86    59   121    1
    87    59   122    1
    88    59   123    1
    89    60    61    2
    90     1    47    1
    91     1    62    1
    92     2    63    1
    93     3    64    1
    94     4    65    1
    95     5     6    1
    96     7     8    2
    97     9    78    1
    98    15    79    1
    99    18    80    1
   100    18    81    1
   101    19    82    1
   102    19    83    1
   103    20    23    1
   104    21    84    1
   105    21    85    1
   106    22    86    1
   107    22    87    1
   108    27    45    1
   109    28    34    1
   110    32    58    1
   111    33    46    2
   112    36    51    1
   113    36    66    1
   114    37    52    1
   115    37    67    1
   116    38    53    1
   117    38    68    1
   118    42    48    1
   119    42    72    1
   120    43    44    2
   121    60    73    1
   122    61    74    1
   123    39    69    1
   124    39    57    1
   125    40    70    1
   126    40    50    1
   127    41    71    1
   128    41    49    1
