@<TRIPOS>MOLECULE
*****
 123 128 0 0 0
SMALL
GASTEIGER

@<TRIPOS>ATOM
     1 C         5.036509   2.056601   0.644762 C.3        1 UNL1     0.0009
     2 C         6.422344   2.998192   -0.148904 C.2        1 UNL1     -0.0787
     3 C         7.717844   3.020091   -0.79485 C.2        1 UNL1     -0.0649
     4 C         8.512907   4.344573   -1.487655 C.2        1 UNL1     -0.0542
     5 C         9.52253   4.747371   -2.396222 C.2        1 UNL1     0.0115
     6 C         10.706751   4.24033   -3.264469 C.3        1 UNL1     -0.0348
     7 C         9.517134   6.256051   -2.944714 C.2        1 UNL1     0.2441
     8 O         10.272284   7.12056   -2.52175 O.2        1 UNL1     -0.2702
     9 N         8.771371   6.452797   -4.119992 N.am        1 UNL1     -0.2772
     10 C         7.459017   6.732002   -3.814879 C.2        1 UNL1     0.1049
     11 C         6.683018   5.690643   -3.57484 C.2        1 UNL1     0.0801
     12 C         6.02439   8.183243   -2.368131 C.ar        1 UNL1     0.0753
     13 C         5.344095   6.986235   -1.977009 C.ar        1 UNL1     0.0305
     14 C         5.566873   5.71865   -2.668853 C.2        1 UNL1     0.0924
     15 N         6.905872   4.381399   -3.781583 N.pl3        1 UNL1     -0.3170
     16 C         5.679169   3.679073   -3.512896 C.3        1 UNL1     0.1275
     17 N         4.959261   4.546358   -2.509266 N.2        1 UNL1     -0.2557
     18 C         4.843398   3.724524   -4.788482 C.3        1 UNL1     0.0016
     19 C         5.663654   3.141898   -5.928359 C.3        1 UNL1     0.0026
     20 N         6.02904   1.77335   -5.589838 N.3        1 UNL1     -0.3018
     21 C         6.783428   1.621314   -4.343983 C.3        1 UNL1     0.0026
     22 C         5.939015   2.208893   -3.2119 C.3        1 UNL1     0.0016
     23 C         6.549528   1.032275   -6.721449 C.3        1 UNL1     0.0012
     24 C         5.43058   0.737143   -7.73269 C.3        1 UNL1     -0.0339
     25 C         5.773739   1.286185   -9.127269 C.3        1 UNL1     -0.0615
     26 C         5.145644   -0.754137   -7.773611 C.3        1 UNL1     -0.0615
     27 C         5.718532   9.410633   -1.784964 C.ar        1 UNL1     0.1347
     28 C         4.727846   9.571731   -0.832789 C.ar        1 UNL1     0.0342
     29 C         4.105171   8.371921   -0.42795 C.ar        1 UNL1     0.1435
     30 C         4.426314   7.130003   -0.977247 C.ar        1 UNL1     0.0774
     31 O         3.045912   8.375708   0.410479 O.3        1 UNL1     -0.4436
     32 C         2.419512   7.099786   0.209192 C.3        1 UNL1     0.3143
     33 C         3.511304   6.204983   -0.341746 C.2        1 UNL1     0.2504
     34 C         4.174718   10.883294   -0.349102 C.3        1 UNL1     -0.0327
     35 O         2.072368   6.587079   1.501429 O.2        1 UNL1     -0.4528
     36 C         -1.012723   4.439379   0.974471 C.3        1 UNL1     0.0854
     37 C         -1.210528   3.1956   0.025045 C.3        1 UNL1     0.0236
     38 C         -1.728055   1.864321   0.754158 C.3        1 UNL1     0.1131
     39 C         -0.984707   1.337866   2.047429 C.3        1 UNL1     0.0200
     40 C         0.68189   1.312912   2.112749 C.3        1 UNL1     0.0661
     41 C         1.712909   0.66237   0.93317 C.3        1 UNL1     0.0091
     42 C         3.397331   1.170656   0.413774 C.3        1 UNL1     0.0661
     43 C         7.003931   8.089357   -3.478962 C.2        1 UNL1     0.2131
     44 O         7.347129   9.041523   -4.155964 O.2        1 UNL1     -0.2851
     45 O         6.458905   10.519473   -2.189635 O.3        1 UNL1     -0.5056
     46 O         3.6142   5.001687   -0.256047 O.2        1 UNL1     -0.2836
     47 C         5.441848   1.601821   2.072648 C.3        1 UNL1     -0.0566
     48 O         3.947643   -0.205908   0.450444 O.3        1 UNL1     -0.3909
     49 C         0.916926   0.417596   -0.329363 C.3        1 UNL1     -0.0577
     50 O         1.184496   2.555304   2.561715 O.3        1 UNL1     -0.3910
     51 O         -1.143367   4.187269   2.355342 O.3        1 UNL1     -0.3753
     52 C         -0.13986   3.156916   -1.113869 C.3        1 UNL1     -0.0564
     53 O         -2.238651   0.819691   -0.194719 O.3        1 UNL1     -0.4608
     54 C         -2.349065   -0.518294   0.080114 C.2        1 UNL1     0.3042
     55 O         -1.59989   -1.421192   -0.290496 O.2        1 UNL1     -0.2512
     56 C         -3.500776   -0.853432   0.984525 C.3        1 UNL1     0.0332
     57 C         -1.772072   1.902797   3.319861 C.3        1 UNL1     -0.0567
     58 C         1.34557   7.307344   -0.884013 C.3        1 UNL1     0.0210
     59 C         -1.553905   5.310556   3.133514 C.3        1 UNL1     0.0372
     60 C         0.26948   5.172597   0.791426 C.2        1 UNL1     -0.0208
     61 C         1.134591   5.639469   1.692735 C.2        1 UNL1     0.0882
     62 H         4.487921   2.999139   0.760457 H        1 UNL1     0.0365
     63 H         6.077417   4.024776   -0.008829 H        1 UNL1     0.0576
     64 H         8.24895   2.09867   -1.043882 H        1 UNL1     0.0615
     65 H         7.954368   5.207683   -1.11542 H        1 UNL1     0.0622
     66 H         -1.805744   5.140829   0.679289 H        1 UNL1     0.0645
     67 H         -2.087279   3.464218   -0.589537 H        1 UNL1     0.0362
     68 H         -2.709993   2.216672   1.105111 H        1 UNL1     0.0741
     69 H         -1.243525   0.298381   2.198738 H        1 UNL1     0.0359
     70 H         0.828887   0.628849   2.970368 H        1 UNL1     0.0600
     71 H         1.825393   -0.368654   1.322135 H        1 UNL1     0.0348
     72 H         3.240957   1.611414   1.409061 H        1 UNL1     0.0602
     73 H         0.388048   5.418022   -0.234711 H        1 UNL1     0.0628
     74 H         1.116579   5.386736   2.753414 H        1 UNL1     0.1022
     75 H         10.780889   3.127199   -3.214707 H        1 UNL1     0.0279
     76 H         10.636818   4.42285   -4.334453 H        1 UNL1     0.0279
     77 H         11.68635   4.540934   -2.864815 H        1 UNL1     0.0279
     78 H         8.781705   5.601662   -4.67815 H        1 UNL1     0.1553
     79 H         7.610148   4.027565   -4.402655 H        1 UNL1     0.1484
     80 H         3.918204   3.157334   -4.630121 H        1 UNL1     0.0317
     81 H         4.544914   4.751624   -5.024327 H        1 UNL1     0.0317
     82 H         6.556143   3.749164   -6.139554 H        1 UNL1     0.0428
     83 H         5.049608   3.185657   -6.828405 H        1 UNL1     0.0428
     84 H         6.97581   0.57877   -4.072135 H        1 UNL1     0.0428
     85 H         7.784959   2.067562   -4.415499 H        1 UNL1     0.0428
     86 H         6.458818   1.961989   -2.304799 H        1 UNL1     0.0317
     87 H         4.995765   1.656303   -3.122347 H        1 UNL1     0.0317
     88 H         7.311223   1.650975   -7.213714 H        1 UNL1     0.0429
     89 H         7.04549   0.10783   -6.398653 H        1 UNL1     0.0429
     90 H         4.502677   1.210077   -7.389843 H        1 UNL1     0.0308
     91 H         6.800393   1.036524   -9.411438 H        1 UNL1     0.0233
     92 H         5.08703   0.889057   -9.878488 H        1 UNL1     0.0233
     93 H         5.685815   2.378148   -9.17944 H        1 UNL1     0.0233
     94 H         4.661988   -1.020439   -8.719653 H        1 UNL1     0.0233
     95 H         6.081619   -1.315421   -7.703797 H        1 UNL1     0.0233
     96 H         4.489895   -1.05778   -6.95278 H        1 UNL1     0.0233
     97 H         3.322588   10.747802   0.310252 H        1 UNL1     0.0280
     98 H         4.912688   11.456258   0.227413 H        1 UNL1     0.0280
     99 H         3.851212   11.488109   -1.212026 H        1 UNL1     0.0280
     100 H         5.942767   11.27135   -2.421807 H        1 UNL1     0.2922
     101 H         4.574683   1.187712   2.586647 H        1 UNL1     0.0236
     102 H         5.923852   2.388332   2.652352 H        1 UNL1     0.0236
     103 H         6.17492   0.778177   2.052467 H        1 UNL1     0.0236
     104 H         4.275736   -0.368356   1.356499 H        1 UNL1     0.2098
     105 H         0.688405   1.315856   -0.897445 H        1 UNL1     0.0234
     106 H         1.327903   -0.349808   -0.985196 H        1 UNL1     0.0234
     107 H         0.0   -0.0   0.0 H        1 UNL1     0.0234
     108 H         1.003849   3.211512   1.86134 H        1 UNL1     0.2098
     109 H         0.885264   3.116625   -0.719902 H        1 UNL1     0.0234
     110 H         -0.293223   2.334617   -1.821008 H        1 UNL1     0.0234
     111 H         -0.18241   4.057992   -1.740126 H        1 UNL1     0.0234
     112 H         -3.519381   -1.929884   1.180101 H        1 UNL1     0.0342
     113 H         -3.469212   -0.287843   1.914555 H        1 UNL1     0.0342
     114 H         -4.432563   -0.589245   0.465735 H        1 UNL1     0.0342
     115 H         -2.845806   1.675241   3.269834 H        1 UNL1     0.0234
     116 H         -1.400724   1.526029   4.274951 H        1 UNL1     0.0234
     117 H         -1.790054   3.005005   3.372344 H        1 UNL1     0.0234
     118 H         0.323935   7.314932   -0.465432 H        1 UNL1     0.0309
     119 H         1.499401   8.219173   -1.469766 H        1 UNL1     0.0309
     120 H         1.316457   6.484227   -1.606326 H        1 UNL1     0.0309
     121 H         -1.187453   5.160052   4.148608 H        1 UNL1     0.0524
     122 H         -1.124552   6.256033   2.762345 H        1 UNL1     0.0524
     123 H         -2.637203   5.391551   3.134232 H        1 UNL1     0.0524
@<TRIPOS>BOND
     1     1     2    1
     2     1    42    1
     3     2     3    2
     4     3     4    1
     5     4     5    2
     6     5     7    1
     7     6    75    1
     8     6    76    1
     9     6    77    1
    10     7     9   am
    11     9    10    1
    12    10    11    2
    13    10    43    1
    14    11    14    1
    15    11    15    1
    16    12    13   ar
    17    12    27   ar
    18    12    43    1
    19    13    14    1
    20    13    30   ar
    21    14    17    2
    22    15    16    1
    23    16    17    1
    24    16    18    1
    25    16    22    1
    26    18    19    1
    27    19    20    1
    28    20    21    1
    29    21    22    1
    30    23    24    1
    31    23    88    1
    32    23    89    1
    33    24    25    1
    34    24    26    1
    35    24    90    1
    36    25    91    1
    37    25    92    1
    38    25    93    1
    39    26    94    1
    40    26    95    1
    41    26    96    1
    42    27    28   ar
    43    28    29   ar
    44    29    30   ar
    45    29    31    1
    46    30    33    1
    47    31    32    1
    48    32    33    1
    49    32    35    1
    50    34    97    1
    51    34    98    1
    52    34    99    1
    53    35    61    1
    54    36    37    1
    55    36    60    1
    56    37    38    1
    57    38    39    1
    58    39    40    1
    59    40    41    1
    60    41    42    1
    61    45   100    1
    62    47   101    1
    63    47   102    1
    64    47   103    1
    65    48   104    1
    66    49   105    1
    67    49   106    1
    68    49   107    1
    69    50   108    1
    70    51    59    1
    71    52   109    1
    72    52   110    1
    73    52   111    1
    74    53    54    1
    75    54    55    2
    76    54    56    1
    77    56   112    1
    78    56   113    1
    79    56   114    1
    80    57   115    1
    81    57   116    1
    82    57   117    1
    83    58   118    1
    84    58   119    1
    85    58   120    1
    86    59   121    1
    87    59   122    1
    88    59   123    1
    89    60    61    2
    90     1    47    1
    91     1    62    1
    92     2    63    1
    93     3    64    1
    94     4    65    1
    95     5     6    1
    96     7     8    2
    97     9    78    1
    98    15    79    1
    99    18    80    1
   100    18    81    1
   101    19    82    1
   102    19    83    1
   103    20    23    1
   104    21    84    1
   105    21    85    1
   106    22    86    1
   107    22    87    1
   108    27    45    1
   109    28    34    1
   110    32    58    1
   111    33    46    2
   112    36    51    1
   113    36    66    1
   114    37    52    1
   115    37    67    1
   116    38    53    1
   117    38    68    1
   118    42    48    1
   119    42    72    1
   120    43    44    2
   121    60    73    1
   122    61    74    1
   123    39    69    1
   124    39    57    1
   125    40    70    1
   126    40    50    1
   127    41    71    1
   128    41    49    1
