@<TRIPOS>MOLECULE
*****
 123 128 0 0 0
SMALL
GASTEIGER

@<TRIPOS>ATOM
     1 C         0.249948   2.602071   4.814406 C.3        1 UNL1     0.0009
     2 C         0.214538   4.244021   5.674512 C.2        1 UNL1     -0.0787
     3 C         0.906853   5.335491   6.326769 C.2        1 UNL1     -0.0649
     4 C         0.258079   6.80067   6.873304 C.2        1 UNL1     -0.0542
     5 C         0.554748   8.135758   7.242906 C.2        1 UNL1     0.0115
     6 C         1.71037   9.126423   7.553457 C.3        1 UNL1     -0.0348
     7 C         -0.635472   9.212   7.288387 C.2        1 UNL1     0.2441
     8 O         -1.157246   9.583452   8.330645 O.2        1 UNL1     -0.2702
     9 N         -0.861052   9.892143   6.078978 N.am        1 UNL1     -0.2772
     10 C         -1.744641   9.190745   5.291175 C.2        1 UNL1     0.1049
     11 C         -1.230167   8.212   4.568958 C.2        1 UNL1     0.0801
     12 C         -3.96419   8.038213   5.342201 C.ar        1 UNL1     0.0753
     13 C         -3.307269   6.916096   4.74394 C.ar        1 UNL1     0.0305
     14 C         -1.947704   7.016434   4.218045 C.2        1 UNL1     0.0924
     15 N         0.054315   7.912382   4.310377 N.pl3        1 UNL1     -0.3170
     16 C         0.071078   6.856935   3.332623 C.3        1 UNL1     0.1275
     17 N         -1.227549   6.119463   3.550403 N.2        1 UNL1     -0.2557
     18 C         -0.038833   7.511428   1.958847 C.3        1 UNL1     0.0016
     19 C         1.086799   8.522624   1.810438 C.3        1 UNL1     0.0026
     20 N         2.359663   7.831132   1.961056 N.3        1 UNL1     -0.3018
     21 C         2.533848   7.118371   3.228337 C.3        1 UNL1     0.0026
     22 C         1.395193   6.104747   3.354535 C.3        1 UNL1     0.0016
     23 C         3.491096   8.635267   1.54408 C.3        1 UNL1     0.0012
     24 C         3.494003   8.810262   0.017278 C.3        1 UNL1     -0.0339
     25 C         4.926059   8.866392   -0.539607 C.3        1 UNL1     -0.0615
     26 C         2.683437   7.703934   -0.635257 C.3        1 UNL1     -0.0615
     27 C         -5.299904   7.969497   5.731131 C.ar        1 UNL1     0.1347
     28 C         -6.089422   6.850099   5.537074 C.ar        1 UNL1     0.0342
     29 C         -5.408167   5.741472   4.991177 C.ar        1 UNL1     0.1435
     30 C         -4.060936   5.784045   4.6301 C.ar        1 UNL1     0.0774
     31 O         -6.064376   4.613917   4.640439 O.3        1 UNL1     -0.4436
     32 C         -5.179271   3.948496   3.726832 C.3        1 UNL1     0.3143
     33 C         -3.799005   4.482125   4.052897 C.2        1 UNL1     0.2504
     34 C         -7.583063   6.786406   5.695443 C.3        1 UNL1     -0.0327
     35 O         -5.1804   2.557213   4.069732 O.2        1 UNL1     -0.4528
     36 C         -4.529935   0.686783   0.831449 C.3        1 UNL1     0.0854
     37 C         -3.314747   0.814128   -0.16586 C.3        1 UNL1     0.0236
     38 C         -2.547767   -0.559758   -0.475574 C.3        1 UNL1     0.1131
     39 C         -2.063208   -1.475218   0.720003 C.3        1 UNL1     0.0200
     40 C         -1.332133   -0.799915   2.058634 C.3        1 UNL1     0.0661
     41 C         -0.046637   0.306711   2.036505 C.3        1 UNL1     0.0091
     42 C         0.362086   1.679031   3.183277 C.3        1 UNL1     0.0661
     43 C         -3.201614   9.306464   5.453009 C.2        1 UNL1     0.2131
     44 O         -3.72618   10.399689   5.564489 O.2        1 UNL1     -0.2851
     45 O         -5.850822   9.091085   6.347545 O.3        1 UNL1     -0.5056
     46 O         -2.726079   3.944464   3.892888 O.2        1 UNL1     -0.2836
     47 C         0.494271   1.461721   5.839047 C.3        1 UNL1     -0.0566
     48 O         1.791618   1.303713   3.304486 O.3        1 UNL1     -0.3909
     49 C         0.11049   0.844148   0.631526 C.3        1 UNL1     -0.0577
     50 O         -2.298717   -0.398749   3.008637 O.3        1 UNL1     -0.3910
     51 O         -4.684261   -0.566842   1.457581 O.3        1 UNL1     -0.3753
     52 C         -2.55419   2.168481   0.013668 C.3        1 UNL1     -0.0564
     53 O         -1.642081   -0.485905   -1.66998 O.3        1 UNL1     -0.4608
     54 C         -0.423019   -1.10162   -1.782737 C.2        1 UNL1     0.3042
     55 O         0.687943   -0.584532   -1.672188 O.2        1 UNL1     -0.2512
     56 C         -0.516548   -2.583273   -2.012233 C.3        1 UNL1     0.0332
     57 C         -3.189575   -2.583863   0.965722 C.3        1 UNL1     -0.0567
     58 C         -5.575748   4.423405   2.309512 C.3        1 UNL1     0.0210
     59 C         -5.79017   -1.338011   0.990539 C.3        1 UNL1     0.0372
     60 C         -4.569145   1.712565   1.90913 C.2        1 UNL1     -0.0208
     61 C         -4.80669   1.585449   3.21533 C.2        1 UNL1     0.0882
     62 H         -0.835853   2.672122   4.677145 H        1 UNL1     0.0365
     63 H         -0.861537   4.421003   5.731176 H        1 UNL1     0.0576
     64 H         1.997285   5.37179   6.379185 H        1 UNL1     0.0615
     65 H         -0.821788   6.63019   6.855753 H        1 UNL1     0.0622
     66 H         -5.417671   0.86902   0.209549 H        1 UNL1     0.0645
     67 H         -3.788601   1.025427   -1.140219 H        1 UNL1     0.0362
     68 H         -3.361975   -1.119713   -0.960382 H        1 UNL1     0.0741
     69 H         -1.305212   -2.154415   0.353204 H        1 UNL1     0.0359
     70 H         -0.869471   -1.703616   2.499461 H        1 UNL1     0.0600
     71 H         0.810794   -0.391776   2.098841 H        1 UNL1     0.0348
     72 H         -0.31826   1.014697   3.735641 H        1 UNL1     0.0602
     73 H         -4.495704   2.678541   1.474683 H        1 UNL1     0.0628
     74 H         -4.837994   0.633625   3.746638 H        1 UNL1     0.1022
     75 H         2.446836   8.662708   8.253187 H        1 UNL1     0.0279
     76 H         2.337064   9.419257   6.714069 H        1 UNL1     0.0279
     77 H         1.378005   9.99861   8.135286 H        1 UNL1     0.0279
     78 H         0.012818   9.971639   5.563119 H        1 UNL1     0.1553
     79 H         0.811162   8.561624   4.422624 H        1 UNL1     0.1484
     80 H         0.016625   6.734217   1.187074 H        1 UNL1     0.0317
     81 H         -1.008849   8.00531   1.83719 H        1 UNL1     0.0317
     82 H         0.99436   9.344158   2.536005 H        1 UNL1     0.0428
     83 H         0.988494   8.978674   0.824839 H        1 UNL1     0.0428
     84 H         3.462931   6.542559   3.283628 H        1 UNL1     0.0428
     85 H         2.596948   7.809117   4.080513 H        1 UNL1     0.0428
     86 H         1.627827   5.514378   4.221331 H        1 UNL1     0.0317
     87 H         1.445889   5.380007   2.532783 H        1 UNL1     0.0317
     88 H         3.396395   9.625238   2.009144 H        1 UNL1     0.0429
     89 H         4.437577   8.204266   1.895059 H        1 UNL1     0.0429
     90 H         2.98316   9.74627   -0.237951 H        1 UNL1     0.0308
     91 H         5.549822   8.074922   -0.113465 H        1 UNL1     0.0233
     92 H         4.921227   8.772315   -1.628063 H        1 UNL1     0.0233
     93 H         5.423655   9.818097   -0.317144 H        1 UNL1     0.0233
     94 H         2.984774   7.581571   -1.681229 H        1 UNL1     0.0233
     95 H         2.862115   6.756092   -0.119862 H        1 UNL1     0.0233
     96 H         1.612634   7.924362   -0.607646 H        1 UNL1     0.0233
     97 H         -8.077182   6.477864   4.778995 H        1 UNL1     0.0280
     98 H         -7.887521   6.060026   6.460252 H        1 UNL1     0.0280
     99 H         -7.967023   7.780521   5.977234 H        1 UNL1     0.0280
     100 H         -5.334709   9.444598   7.050595 H        1 UNL1     0.2922
     101 H         -0.437831   0.928542   6.024957 H        1 UNL1     0.0236
     102 H         0.959008   1.807023   6.761961 H        1 UNL1     0.0236
     103 H         1.182619   0.693996   5.447934 H        1 UNL1     0.0236
     104 H         1.839623   0.32789   3.325361 H        1 UNL1     0.2098
     105 H         -0.640626   1.575491   0.343822 H        1 UNL1     0.0234
     106 H         1.108001   1.213751   0.394265 H        1 UNL1     0.0234
     107 H         0.0   0.0   0.0 H        1 UNL1     0.0234
     108 H         -1.849776   0.184114   3.650891 H        1 UNL1     0.2098
     109 H         -3.199936   3.036783   -0.178102 H        1 UNL1     0.0234
     110 H         -2.084701   2.271265   0.997924 H        1 UNL1     0.0234
     111 H         -1.717104   2.259117   -0.691327 H        1 UNL1     0.0234
     112 H         0.487262   -3.014739   -2.071797 H        1 UNL1     0.0342
     113 H         -1.110361   -3.079672   -1.246193 H        1 UNL1     0.0342
     114 H         -1.012726   -2.750193   -2.978209 H        1 UNL1     0.0342
     115 H         -2.758376   -3.536243   1.303697 H        1 UNL1     0.0234
     116 H         -3.949522   -2.291064   1.692907 H        1 UNL1     0.0234
     117 H         -3.705306   -2.899191   0.042396 H        1 UNL1     0.0234
     118 H         -6.046575   3.618041   1.71899 H        1 UNL1     0.0309
     119 H         -6.237705   5.295152   2.318014 H        1 UNL1     0.0309
     120 H         -4.708485   4.707113   1.703318 H        1 UNL1     0.0309
     121 H         -6.087252   -2.00955   1.795606 H        1 UNL1     0.0524
     122 H         -6.662573   -0.710776   0.742493 H        1 UNL1     0.0524
     123 H         -5.505442   -1.909439   0.111622 H        1 UNL1     0.0524
@<TRIPOS>BOND
     1     1     2    1
     2     1    42    1
     3     2     3    2
     4     3     4    1
     5     4     5    2
     6     5     7    1
     7     6    75    1
     8     6    76    1
     9     6    77    1
    10     7     9   am
    11     9    10    1
    12    10    11    2
    13    10    43    1
    14    11    14    1
    15    11    15    1
    16    12    13   ar
    17    12    27   ar
    18    12    43    1
    19    13    14    1
    20    13    30   ar
    21    14    17    2
    22    15    16    1
    23    16    17    1
    24    16    18    1
    25    16    22    1
    26    18    19    1
    27    19    20    1
    28    20    21    1
    29    21    22    1
    30    23    24    1
    31    23    88    1
    32    23    89    1
    33    24    25    1
    34    24    26    1
    35    24    90    1
    36    25    91    1
    37    25    92    1
    38    25    93    1
    39    26    94    1
    40    26    95    1
    41    26    96    1
    42    27    28   ar
    43    28    29   ar
    44    29    30   ar
    45    29    31    1
    46    30    33    1
    47    31    32    1
    48    32    33    1
    49    32    35    1
    50    34    97    1
    51    34    98    1
    52    34    99    1
    53    35    61    1
    54    36    37    1
    55    36    60    1
    56    37    38    1
    57    38    39    1
    58    39    40    1
    59    40    41    1
    60    41    42    1
    61    45   100    1
    62    47   101    1
    63    47   102    1
    64    47   103    1
    65    48   104    1
    66    49   105    1
    67    49   106    1
    68    49   107    1
    69    50   108    1
    70    51    59    1
    71    52   109    1
    72    52   110    1
    73    52   111    1
    74    53    54    1
    75    54    55    2
    76    54    56    1
    77    56   112    1
    78    56   113    1
    79    56   114    1
    80    57   115    1
    81    57   116    1
    82    57   117    1
    83    58   118    1
    84    58   119    1
    85    58   120    1
    86    59   121    1
    87    59   122    1
    88    59   123    1
    89    60    61    2
    90     1    47    1
    91     1    62    1
    92     2    63    1
    93     3    64    1
    94     4    65    1
    95     5     6    1
    96     7     8    2
    97     9    78    1
    98    15    79    1
    99    18    80    1
   100    18    81    1
   101    19    82    1
   102    19    83    1
   103    20    23    1
   104    21    84    1
   105    21    85    1
   106    22    86    1
   107    22    87    1
   108    27    45    1
   109    28    34    1
   110    32    58    1
   111    33    46    2
   112    36    51    1
   113    36    66    1
   114    37    52    1
   115    37    67    1
   116    38    53    1
   117    38    68    1
   118    42    48    1
   119    42    72    1
   120    43    44    2
   121    60    73    1
   122    61    74    1
   123    39    69    1
   124    39    57    1
   125    40    70    1
   126    40    50    1
   127    41    71    1
   128    41    49    1
