@<TRIPOS>MOLECULE
*****
 123 128 0 0 0
SMALL
GASTEIGER

@<TRIPOS>ATOM
     1 C         3.056377   0.489957   4.498385 C.3        1 UNL1     0.0009
     2 C         4.695999   0.091795   5.266595 C.2        1 UNL1     -0.0787
     3 C         5.492684   -0.678659   6.198121 C.2        1 UNL1     -0.0649
     4 C         7.174894   -0.664138   6.388689 C.2        1 UNL1     -0.0542
     5 C         8.293292   -1.377967   6.885389 C.2        1 UNL1     0.0115
     6 C         8.724638   -2.598723   7.743888 C.3        1 UNL1     -0.0348
     7 C         9.759979   -0.983574   6.36551 C.2        1 UNL1     0.2441
     8 O         10.542724   -0.314904   7.026355 O.2        1 UNL1     -0.2702
     9 N         10.182633   -1.673437   5.2159 N.am        1 UNL1     -0.2772
     10 C         9.77936   -1.007937   4.081086 C.2        1 UNL1     0.1049
     11 C         8.54097   -1.235007   3.682273 C.2        1 UNL1     0.0801
     12 C         9.749593   1.253808   3.01293 C.ar        1 UNL1     0.0753
     13 C         8.351733   1.043197   2.78879 C.ar        1 UNL1     0.0305
     14 C         7.731418   -0.263013   2.998732 C.2        1 UNL1     0.0924
     15 N         7.663692   -2.172566   4.079632 N.pl3        1 UNL1     -0.3170
     16 C         6.51786   -2.097795   3.212607 C.3        1 UNL1     0.1275
     17 N         6.487131   -0.661547   2.750038 N.2        1 UNL1     -0.2557
     18 C         6.831301   -2.934399   1.975857 C.3        1 UNL1     0.0016
     19 C         7.19153   -4.343103   2.420129 C.3        1 UNL1     0.0026
     20 N         6.06831   -4.901899   3.159827 N.3        1 UNL1     -0.3018
     21 C         5.652398   -4.131994   4.333979 C.3        1 UNL1     0.0026
     22 C         5.290771   -2.721972   3.863917 C.3        1 UNL1     0.0016
     23 C         6.185587   -6.331377   3.368349 C.3        1 UNL1     0.0012
     24 C         6.991919   -6.625371   4.643164 C.3        1 UNL1     -0.0339
     25 C         6.071731   -6.998602   5.81705 C.3        1 UNL1     -0.0615
     26 C         8.019002   -7.71065   4.371044 C.3        1 UNL1     -0.0615
     27 C         10.356677   2.466706   2.696 C.ar        1 UNL1     0.1347
     28 C         9.679767   3.524504   2.115563 C.ar        1 UNL1     0.0342
     29 C         8.29475   3.311811   1.949275 C.ar        1 UNL1     0.1435
     30 C         7.666037   2.115134   2.295548 C.ar        1 UNL1     0.0774
     31 O         7.517934   4.204364   1.297421 O.3        1 UNL1     -0.4436
     32 C         6.34933   3.460738   0.920253 C.3        1 UNL1     0.3143
     33 C         6.287624   2.299917   1.892312 C.2        1 UNL1     0.2504
     34 C         10.308604   4.753526   1.520441 C.3        1 UNL1     -0.0327
     35 O         5.211888   4.290051   1.188054 O.2        1 UNL1     -0.4528
     36 C         2.576655   3.295425   -1.356422 C.3        1 UNL1     0.0854
     37 C         1.937824   1.879107   -1.627457 C.3        1 UNL1     0.0236
     38 C         0.336576   1.834239   -1.551726 C.3        1 UNL1     0.1131
     39 C         -0.407082   2.437121   -0.29245 C.3        1 UNL1     0.0200
     40 C         0.162205   2.140354   1.247121 C.3        1 UNL1     0.0661
     41 C         0.564317   0.619489   1.881855 C.3        1 UNL1     0.0091
     42 C         1.839341   0.142502   3.11157 C.3        1 UNL1     0.0661
     43 C         10.549605   0.107384   3.510878 C.2        1 UNL1     0.2131
     44 O         11.756467   0.019308   3.374997 O.2        1 UNL1     -0.2851
     45 O         11.712039   2.605403   2.987881 O.3        1 UNL1     -0.5056
     46 O         5.316475   1.681416   2.266719 O.2        1 UNL1     -0.2836
     47 C         2.182857   1.309362   5.486069 C.3        1 UNL1     -0.0566
     48 O         0.917415   -0.701754   3.909318 O.3        1 UNL1     -0.3909
     49 C         0.652597   -0.375457   0.74617 C.3        1 UNL1     -0.0577
     50 O         1.143699   3.09035   1.6103 O.3        1 UNL1     -0.3910
     51 O         1.688924   4.297159   -0.913822 O.3        1 UNL1     -0.3753
     52 C         2.829139   0.722248   -1.068722 C.3        1 UNL1     -0.0564
     53 O         -0.258248   0.591755   -2.14733 O.3        1 UNL1     -0.4608
     54 C         0.434865   -0.372902   -2.830676 C.2        1 UNL1     0.3042
     55 O         0.315471   -1.593084   -2.727046 O.2        1 UNL1     -0.2512
     56 C         1.394267   0.180888   -3.845357 C.3        1 UNL1     0.0332
     57 C         -0.830396   3.936442   -0.654413 C.3        1 UNL1     -0.0567
     58 C         6.620915   2.90925   -0.498772 C.3        1 UNL1     0.0210
     59 C         2.314081   5.424216   -0.301623 C.3        1 UNL1     0.0372
     60 C         3.728576   3.295762   -0.413958 C.2        1 UNL1     -0.0208
     61 C         4.011375   4.108176   0.605234 C.2        1 UNL1     0.0882
     62 H         3.558923   1.216332   3.848355 H        1 UNL1     0.0365
     63 H         5.330764   0.843424   4.792678 H        1 UNL1     0.0576
     64 H         5.06207   -1.497489   6.778807 H        1 UNL1     0.0615
     65 H         7.491568   0.227391   5.840624 H        1 UNL1     0.0622
     66 H         2.983239   3.605584   -2.329323 H        1 UNL1     0.0645
     67 H         2.111496   1.708272   -2.704125 H        1 UNL1     0.0362
     68 H         0.09397   2.510751   -2.385391 H        1 UNL1     0.0741
     69 H         -1.410857   2.035263   -0.25565 H        1 UNL1     0.0359
     70 H         -0.729523   2.424168   1.838162 H        1 UNL1     0.0600
     71 H         -0.404076   0.339459   2.340938 H        1 UNL1     0.0348
     72 H         1.678117   1.222082   3.245092 H        1 UNL1     0.0602
     73 H         4.443058   2.579231   -0.735434 H        1 UNL1     0.0628
     74 H         3.312471   4.828297   1.032078 H        1 UNL1     0.1022
     75 H         7.839185   -3.05626   8.247543 H        1 UNL1     0.0279
     76 H         9.150941   -3.443098   7.206892 H        1 UNL1     0.0279
     77 H         9.342428   -2.313842   8.60811 H        1 UNL1     0.0279
     78 H         9.757466   -2.598057   5.196186 H        1 UNL1     0.1553
     79 H         7.926297   -3.012116   4.562466 H        1 UNL1     0.1484
     80 H         5.957279   -2.934548   1.313398 H        1 UNL1     0.0317
     81 H         7.656874   -2.495422   1.405436 H        1 UNL1     0.0317
     82 H         8.110031   -4.356819   3.025175 H        1 UNL1     0.0428
     83 H         7.41307   -4.922026   1.523013 H        1 UNL1     0.0428
     84 H         4.758356   -4.529084   4.824714 H        1 UNL1     0.0428
     85 H         6.417312   -4.144123   5.122698 H        1 UNL1     0.0428
     86 H         4.867204   -2.230973   4.720362 H        1 UNL1     0.0317
     87 H         4.453496   -2.76596   3.156717 H        1 UNL1     0.0317
     88 H         5.175117   -6.742621   3.491327 H        1 UNL1     0.0429
     89 H         6.6303   -6.82652   2.495515 H        1 UNL1     0.0429
     90 H         7.565486   -5.73262   4.919262 H        1 UNL1     0.0308
     91 H         6.650233   -7.269662   6.705287 H        1 UNL1     0.0233
     92 H         5.403992   -6.169645   6.063148 H        1 UNL1     0.0233
     93 H         5.425165   -7.85365   5.585363 H        1 UNL1     0.0233
     94 H         8.120542   -8.362401   5.245542 H        1 UNL1     0.0233
     95 H         7.696793   -8.32683   3.526967 H        1 UNL1     0.0233
     96 H         8.999573   -7.283798   4.142467 H        1 UNL1     0.0233
     97 H         10.73381   5.40234   2.280356 H        1 UNL1     0.0280
     98 H         11.133674   4.507707   0.8392 H        1 UNL1     0.0280
     99 H         9.547529   5.325134   0.964452 H        1 UNL1     0.0280
     100 H         12.291222   2.316378   2.304775 H        1 UNL1     0.2922
     101 H         1.285969   1.662606   4.977674 H        1 UNL1     0.0236
     102 H         2.726901   2.12144   5.967243 H        1 UNL1     0.0236
     103 H         1.807515   0.690707   6.318282 H        1 UNL1     0.0236
     104 H         1.346178   -0.874497   4.770301 H        1 UNL1     0.2098
     105 H         1.642431   -0.468334   0.306383 H        1 UNL1     0.0234
     106 H         0.245335   -1.361002   0.971487 H        1 UNL1     0.0234
     107 H         0.0   0.0   0.0 H        1 UNL1     0.0234
     108 H         1.547721   2.785272   2.445442 H        1 UNL1     0.2098
     109 H         3.81352   1.079435   -0.735372 H        1 UNL1     0.0234
     110 H         2.349285   0.161808   -0.25916 H        1 UNL1     0.0234
     111 H         3.032531   -0.037993   -1.834628 H        1 UNL1     0.0234
     112 H         2.375389   0.333338   -3.385461 H        1 UNL1     0.0342
     113 H         1.470279   -0.454399   -4.726536 H        1 UNL1     0.0342
     114 H         1.019839   1.160613   -4.17263 H        1 UNL1     0.0342
     115 H         -1.528738   4.35329   0.084332 H        1 UNL1     0.0234
     116 H         0.010809   4.62747   -0.737499 H        1 UNL1     0.0234
     117 H         -1.427383   4.013875   -1.579374 H        1 UNL1     0.0234
     118 H         7.183232   3.626646   -1.121788 H        1 UNL1     0.0309
     119 H         7.147847   1.949816   -0.493259 H        1 UNL1     0.0309
     120 H         5.700292   2.746311   -1.069745 H        1 UNL1     0.0309
     121 H         1.900998   6.32106   -0.76248 H        1 UNL1     0.0524
     122 H         2.106924   5.48126   0.779981 H        1 UNL1     0.0524
     123 H         3.389101   5.386066   -0.453186 H        1 UNL1     0.0524
@<TRIPOS>BOND
     1     1     2    1
     2     1    42    1
     3     2     3    2
     4     3     4    1
     5     4     5    2
     6     5     7    1
     7     6    75    1
     8     6    76    1
     9     6    77    1
    10     7     9   am
    11     9    10    1
    12    10    11    2
    13    10    43    1
    14    11    14    1
    15    11    15    1
    16    12    13   ar
    17    12    27   ar
    18    12    43    1
    19    13    14    1
    20    13    30   ar
    21    14    17    2
    22    15    16    1
    23    16    17    1
    24    16    18    1
    25    16    22    1
    26    18    19    1
    27    19    20    1
    28    20    21    1
    29    21    22    1
    30    23    24    1
    31    23    88    1
    32    23    89    1
    33    24    25    1
    34    24    26    1
    35    24    90    1
    36    25    91    1
    37    25    92    1
    38    25    93    1
    39    26    94    1
    40    26    95    1
    41    26    96    1
    42    27    28   ar
    43    28    29   ar
    44    29    30   ar
    45    29    31    1
    46    30    33    1
    47    31    32    1
    48    32    33    1
    49    32    35    1
    50    34    97    1
    51    34    98    1
    52    34    99    1
    53    35    61    1
    54    36    37    1
    55    36    60    1
    56    37    38    1
    57    38    39    1
    58    39    40    1
    59    40    41    1
    60    41    42    1
    61    45   100    1
    62    47   101    1
    63    47   102    1
    64    47   103    1
    65    48   104    1
    66    49   105    1
    67    49   106    1
    68    49   107    1
    69    50   108    1
    70    51    59    1
    71    52   109    1
    72    52   110    1
    73    52   111    1
    74    53    54    1
    75    54    55    2
    76    54    56    1
    77    56   112    1
    78    56   113    1
    79    56   114    1
    80    57   115    1
    81    57   116    1
    82    57   117    1
    83    58   118    1
    84    58   119    1
    85    58   120    1
    86    59   121    1
    87    59   122    1
    88    59   123    1
    89    60    61    2
    90     1    47    1
    91     1    62    1
    92     2    63    1
    93     3    64    1
    94     4    65    1
    95     5     6    1
    96     7     8    2
    97     9    78    1
    98    15    79    1
    99    18    80    1
   100    18    81    1
   101    19    82    1
   102    19    83    1
   103    20    23    1
   104    21    84    1
   105    21    85    1
   106    22    86    1
   107    22    87    1
   108    27    45    1
   109    28    34    1
   110    32    58    1
   111    33    46    2
   112    36    51    1
   113    36    66    1
   114    37    52    1
   115    37    67    1
   116    38    53    1
   117    38    68    1
   118    42    48    1
   119    42    72    1
   120    43    44    2
   121    60    73    1
   122    61    74    1
   123    39    69    1
   124    39    57    1
   125    40    70    1
   126    40    50    1
   127    41    71    1
   128    41    49    1
