@<TRIPOS>MOLECULE
*****
 123 128 0 0 0
SMALL
GASTEIGER

@<TRIPOS>ATOM
     1 C         3.74784   3.634229   1.067354 C.3        1 UNL1     0.0009
     2 C         4.233101   5.379445   0.672663 C.2        1 UNL1     -0.0787
     3 C         5.141694   6.320946   0.052919 C.2        1 UNL1     -0.0649
     4 C         4.968292   7.999669   -0.081903 C.2        1 UNL1     -0.0542
     5 C         5.384713   9.157177   -0.784646 C.2        1 UNL1     0.0115
     6 C         6.413519   9.699884   -1.814379 C.3        1 UNL1     -0.0348
     7 C         4.489052   10.486192   -0.692458 C.2        1 UNL1     0.2441
     8 O         4.78273   11.438664   0.016821 O.2        1 UNL1     -0.2702
     9 N         3.487991   10.591035   -1.673802 N.am        1 UNL1     -0.2772
     10 C         2.331814   9.978653   -1.247699 C.2        1 UNL1     0.1049
     11 C         2.269523   8.670392   -1.417387 C.2        1 UNL1     0.0801
     12 C         0.759487   9.840576   0.692934 C.ar        1 UNL1     0.0753
     13 C         0.891333   8.418535   0.597929 C.ar        1 UNL1     0.0305
     14 C         1.547323   7.785515   -0.544005 C.2        1 UNL1     0.0924
     15 N         3.063394   7.853038   -2.130289 N.pl3        1 UNL1     -0.3170
     16 C         2.463361   6.545289   -2.127547 C.3        1 UNL1     0.1275
     17 N         1.671281   6.495688   -0.843852 N.2        1 UNL1     -0.2557
     18 C         1.439554   6.515182   -3.258305 C.3        1 UNL1     0.0016
     19 C         2.138878   6.882308   -4.557441 C.3        1 UNL1     0.0026
     20 N         3.212233   5.927532   -4.796899 N.3        1 UNL1     -0.3018
     21 C         4.214957   5.839698   -3.733322 C.3        1 UNL1     0.0026
     22 C         3.491215   5.465368   -2.43873 C.3        1 UNL1     0.0016
     23 C         3.744472   6.003239   -6.142869 C.3        1 UNL1     0.0012
     24 C         2.720674   5.470522   -7.157664 C.3        1 UNL1     -0.0339
     25 C         1.98171   6.617779   -7.866035 C.3        1 UNL1     -0.0615
     26 C         3.404341   4.547923   -8.151742 C.3        1 UNL1     -0.0615
     27 C         0.028589   10.430539   1.721452 C.ar        1 UNL1     0.1347
     28 C         -0.645322   9.703368   2.686396 C.ar        1 UNL1     0.0342
     29 C         -0.460939   8.30697   2.601315 C.ar        1 UNL1     0.1435
     30 C         0.298114   7.703717   1.597749 C.ar        1 UNL1     0.0774
     31 O         -1.140016   7.456387   3.401547 O.3        1 UNL1     -0.4436
     32 C         -1.066444   6.189765   2.729887 C.3        1 UNL1     0.3143
     33 C         0.15718   6.283238   1.840944 C.2        1 UNL1     0.2504
     34 C         -1.647759   10.251512   3.663513 C.3        1 UNL1     -0.0327
     35 O         -0.785311   5.196378   3.723567 O.2        1 UNL1     -0.4528
     36 C         -2.392196   1.991995   2.475391 C.3        1 UNL1     0.0854
     37 C         -2.159302   1.22384   1.117739 C.3        1 UNL1     0.0236
     38 C         -1.74339   -0.316879   1.275679 C.3        1 UNL1     0.1131
     39 C         -0.550026   -0.713582   2.235252 C.3        1 UNL1     0.0200
     40 C         0.861475   0.175281   2.240103 C.3        1 UNL1     0.0661
     41 C         1.76033   0.620096   0.871962 C.3        1 UNL1     0.0091
     42 C         2.777484   2.112441   0.549928 C.3        1 UNL1     0.0661
     43 C         1.352112   10.663032   -0.390866 C.2        1 UNL1     0.2131
     44 O         0.994808   11.798823   -0.645916 O.2        1 UNL1     -0.2851
     45 O         -0.012299   11.822531   1.767567 O.3        1 UNL1     -0.5056
     46 O         0.868633   5.388649   1.441696 O.2        1 UNL1     -0.2836
     47 C         4.657036   3.062023   2.188035 C.3        1 UNL1     -0.0566
     48 O         3.935639   1.349337   0.02508 O.3        1 UNL1     -0.3909
     49 C         0.91871   0.384955   -0.362493 C.3        1 UNL1     -0.0577
     50 O         0.761693   1.269369   3.129338 O.3        1 UNL1     -0.3910
     51 O         -2.041139   1.291725   3.647488 O.3        1 UNL1     -0.3753
     52 C         -1.525585   2.148324   0.027472 C.3        1 UNL1     -0.0564
     53 O         -1.870165   -1.10639   0.005669 O.3        1 UNL1     -0.4608
     54 C         -1.222424   -2.282767   -0.26728 C.2        1 UNL1     0.3042
     55 O         -0.328158   -2.469151   -1.09153 O.2        1 UNL1     -0.2512
     56 C         -1.656113   -3.42495   0.606817 C.3        1 UNL1     0.0332
     57 C         -1.181217   -1.117615   3.648238 C.3        1 UNL1     -0.0567
     58 C         -2.325548   6.094297   1.837099 C.3        1 UNL1     0.0210
     59 C         -2.759566   1.682095   4.816821 C.3        1 UNL1     0.0372
     60 C         -1.741013   3.327518   2.561988 C.2        1 UNL1     -0.0208
     61 C         -1.040779   3.885353   3.550541 C.2        1 UNL1     0.0882
     62 H         2.846189   4.016796   1.56069 H        1 UNL1     0.0365
     63 H         3.464069   5.932434   1.216042 H        1 UNL1     0.0576
     64 H         5.98609   5.986748   -0.554052 H        1 UNL1     0.0615
     65 H         4.160144   8.235064   0.615928 H        1 UNL1     0.0622
     66 H         -3.474397   2.182084   2.502847 H        1 UNL1     0.0645
     67 H         -3.170169   1.13486   0.683239 H        1 UNL1     0.0362
     68 H         -2.651094   -0.703334   1.763784 H        1 UNL1     0.0741
     69 H         -0.205395   -1.704383   1.970769 H        1 UNL1     0.0359
     70 H         1.534241   -0.538019   2.75357 H        1 UNL1     0.0600
     71 H         2.466121   -0.231966   0.818979 H        1 UNL1     0.0348
     72 H         2.665702   2.051557   1.642225 H        1 UNL1     0.0602
     73 H         -2.013276   3.904513   1.713343 H        1 UNL1     0.0628
     74 H         -0.673061   3.347917   4.425289 H        1 UNL1     0.1022
     75 H         7.047083   8.86987   -2.210243 H        1 UNL1     0.0279
     76 H         6.005894   10.137269   -2.723008 H        1 UNL1     0.0279
     77 H         7.171582   10.351243   -1.355278 H        1 UNL1     0.0279
     78 H         3.790338   10.1178   -2.52275 H        1 UNL1     0.1553
     79 H         3.676324   8.168485   -2.859495 H        1 UNL1     0.1484
     80 H         0.995195   5.513953   -3.311709 H        1 UNL1     0.0317
     81 H         0.61825   7.212507   -3.061203 H        1 UNL1     0.0317
     82 H         2.523203   7.912715   -4.535843 H        1 UNL1     0.0428
     83 H         1.390412   6.856495   -5.350021 H        1 UNL1     0.0428
     84 H         4.964644   5.060078   -3.900576 H        1 UNL1     0.0428
     85 H         4.804444   6.763213   -3.649996 H        1 UNL1     0.0428
     86 H         4.26537   5.280294   -1.717329 H        1 UNL1     0.0317
     87 H         3.007948   4.486912   -2.549067 H        1 UNL1     0.0317
     88 H         3.946782   7.057836   -6.371318 H        1 UNL1     0.0429
     89 H         4.698972   5.467546   -6.224951 H        1 UNL1     0.0429
     90 H         1.983283   4.851658   -6.632807 H        1 UNL1     0.0308
     91 H         2.681922   7.290443   -8.370346 H        1 UNL1     0.0233
     92 H         1.270884   6.226057   -8.597397 H        1 UNL1     0.0233
     93 H         1.397157   7.231002   -7.169551 H        1 UNL1     0.0233
     94 H         2.745175   4.357763   -9.00566 H        1 UNL1     0.0233
     95 H         4.317926   5.016072   -8.528783 H        1 UNL1     0.0233
     96 H         3.662211   3.588816   -7.693936 H        1 UNL1     0.0233
     97 H         -2.110243   9.467539   4.255734 H        1 UNL1     0.0280
     98 H         -1.189001   10.941337   4.383888 H        1 UNL1     0.0280
     99 H         -2.442004   10.785722   3.116805 H        1 UNL1     0.0280
     100 H         -0.878065   12.187156   1.823416 H        1 UNL1     0.2922
     101 H         4.269492   2.09911   2.520096 H        1 UNL1     0.0236
     102 H         4.801015   3.753124   3.017873 H        1 UNL1     0.0236
     103 H         5.674992   2.843642   1.824348 H        1 UNL1     0.0236
     104 H         4.507938   1.122702   0.78408 H        1 UNL1     0.2098
     105 H         0.70043   1.28297   -0.934973 H        1 UNL1     0.0234
     106 H         1.285585   -0.402668   -1.020506 H        1 UNL1     0.0234
     107 H         0.0   -0.0   0.0 H        1 UNL1     0.0234
     108 H         0.112892   1.893124   2.750188 H        1 UNL1     0.2098
     109 H         -0.559596   2.56478   0.345502 H        1 UNL1     0.0234
     110 H         -1.409496   1.65284   -0.942456 H        1 UNL1     0.0234
     111 H         -2.165115   3.01398   -0.190672 H        1 UNL1     0.0234
     112 H         -1.088042   -4.32488   0.352323 H        1 UNL1     0.0342
     113 H         -1.561039   -3.189323   1.665724 H        1 UNL1     0.0342
     114 H         -2.716862   -3.62795   0.404911 H        1 UNL1     0.0342
     115 H         -1.965654   -1.879593   3.542233 H        1 UNL1     0.0234
     116 H         -0.452432   -1.494613   4.368511 H        1 UNL1     0.0234
     117 H         -1.743239   -0.298685   4.129306 H        1 UNL1     0.0234
     118 H         -3.208299   5.745627   2.40118 H        1 UNL1     0.0309
     119 H         -2.5697   7.036619   1.336477 H        1 UNL1     0.0309
     120 H         -2.221994   5.346932   1.042852 H        1 UNL1     0.0309
     121 H         -2.135172   1.451769   5.67963 H        1 UNL1     0.0524
     122 H         -2.968325   2.764695   4.837645 H        1 UNL1     0.0524
     123 H         -3.699238   1.140563   4.878896 H        1 UNL1     0.0524
@<TRIPOS>BOND
     1     1     2    1
     2     1    42    1
     3     2     3    2
     4     3     4    1
     5     4     5    2
     6     5     7    1
     7     6    75    1
     8     6    76    1
     9     6    77    1
    10     7     9   am
    11     9    10    1
    12    10    11    2
    13    10    43    1
    14    11    14    1
    15    11    15    1
    16    12    13   ar
    17    12    27   ar
    18    12    43    1
    19    13    14    1
    20    13    30   ar
    21    14    17    2
    22    15    16    1
    23    16    17    1
    24    16    18    1
    25    16    22    1
    26    18    19    1
    27    19    20    1
    28    20    21    1
    29    21    22    1
    30    23    24    1
    31    23    88    1
    32    23    89    1
    33    24    25    1
    34    24    26    1
    35    24    90    1
    36    25    91    1
    37    25    92    1
    38    25    93    1
    39    26    94    1
    40    26    95    1
    41    26    96    1
    42    27    28   ar
    43    28    29   ar
    44    29    30   ar
    45    29    31    1
    46    30    33    1
    47    31    32    1
    48    32    33    1
    49    32    35    1
    50    34    97    1
    51    34    98    1
    52    34    99    1
    53    35    61    1
    54    36    37    1
    55    36    60    1
    56    37    38    1
    57    38    39    1
    58    39    40    1
    59    40    41    1
    60    41    42    1
    61    45   100    1
    62    47   101    1
    63    47   102    1
    64    47   103    1
    65    48   104    1
    66    49   105    1
    67    49   106    1
    68    49   107    1
    69    50   108    1
    70    51    59    1
    71    52   109    1
    72    52   110    1
    73    52   111    1
    74    53    54    1
    75    54    55    2
    76    54    56    1
    77    56   112    1
    78    56   113    1
    79    56   114    1
    80    57   115    1
    81    57   116    1
    82    57   117    1
    83    58   118    1
    84    58   119    1
    85    58   120    1
    86    59   121    1
    87    59   122    1
    88    59   123    1
    89    60    61    2
    90     1    47    1
    91     1    62    1
    92     2    63    1
    93     3    64    1
    94     4    65    1
    95     5     6    1
    96     7     8    2
    97     9    78    1
    98    15    79    1
    99    18    80    1
   100    18    81    1
   101    19    82    1
   102    19    83    1
   103    20    23    1
   104    21    84    1
   105    21    85    1
   106    22    86    1
   107    22    87    1
   108    27    45    1
   109    28    34    1
   110    32    58    1
   111    33    46    2
   112    36    51    1
   113    36    66    1
   114    37    52    1
   115    37    67    1
   116    38    53    1
   117    38    68    1
   118    42    48    1
   119    42    72    1
   120    43    44    2
   121    60    73    1
   122    61    74    1
   123    39    69    1
   124    39    57    1
   125    40    70    1
   126    40    50    1
   127    41    71    1
   128    41    49    1
