@<TRIPOS>MOLECULE
*****
 123 128 0 0 0
SMALL
GASTEIGER

@<TRIPOS>ATOM
     1 C         3.695289   -2.135335   2.211089 C.3        1 UNL1     0.0009
     2 C         4.605854   -3.749679   2.168657 C.2        1 UNL1     -0.0787
     3 C         4.705927   -5.145456   2.539923 C.2        1 UNL1     -0.0649
     4 C         5.864156   -6.274679   2.040206 C.2        1 UNL1     -0.0542
     5 C         6.157589   -7.653905   1.903419 C.2        1 UNL1     0.0115
     6 C         5.674233   -9.083906   2.270552 C.3        1 UNL1     -0.0348
     7 C         7.348531   -8.101414   0.924448 C.2        1 UNL1     0.2441
     8 O         8.454073   -8.433044   1.329816 O.2        1 UNL1     -0.2702
     9 N         6.960141   -8.337881   -0.405735 N.am        1 UNL1     -0.2772
     10 C         7.016083   -7.173374   -1.136567 C.2        1 UNL1     0.1049
     11 C         5.967958   -6.375513   -1.04132 C.2        1 UNL1     0.0801
     12 C         8.498906   -5.226966   -1.656243 C.ar        1 UNL1     0.0753
     13 C         7.381674   -4.391055   -1.337414 C.ar        1 UNL1     0.0305
     14 C         6.042415   -4.943503   -1.147054 C.2        1 UNL1     0.0924
     15 N         4.754327   -6.603322   -0.510538 N.pl3        1 UNL1     -0.3170
     16 C         3.921686   -5.470158   -0.815335 C.3        1 UNL1     0.1275
     17 N         4.886359   -4.317007   -0.94714 N.2        1 UNL1     -0.2557
     18 C         3.340646   -5.697459   -2.20761 C.3        1 UNL1     0.0016
     19 C         2.612947   -7.032344   -2.218915 C.3        1 UNL1     0.0026
     20 N         1.561898   -7.000681   -1.211283 N.3        1 UNL1     -0.3018
     21 C         2.016893   -6.726332   0.153298 C.3        1 UNL1     0.0026
     22 C         2.740928   -5.37891   0.142282 C.3        1 UNL1     0.0016
     23 C         0.623395   -8.097546   -1.340676 C.3        1 UNL1     0.0012
     24 C         -0.24451   -7.918542   -2.596245 C.3        1 UNL1     -0.0339
     25 C         0.324189   -8.703715   -3.789619 C.3        1 UNL1     -0.0615
     26 C         -1.679718   -8.316263   -2.298295 C.3        1 UNL1     -0.0615
     27 C         9.745704   -4.682491   -1.954843 C.ar        1 UNL1     0.1347
     28 C         9.986092   -3.320968   -2.005034 C.ar        1 UNL1     0.0342
     29 C         8.884181   -2.518719   -1.639856 C.ar        1 UNL1     0.1435
     30 C         7.639063   -3.051242   -1.303227 C.ar        1 UNL1     0.0774
     31 O         8.926825   -1.172584   -1.745251 O.3        1 UNL1     -0.4436
     32 C         7.550114   -0.765858   -1.755895 C.3        1 UNL1     0.3143
     33 C         6.798566   -1.893778   -1.078265 C.2        1 UNL1     0.2504
     34 C         11.219294   -2.663189   -2.558783 C.3        1 UNL1     -0.0327
     35 O         7.43815   0.380958   -0.904115 O.2        1 UNL1     -0.4528
     36 C         4.590249   2.453796   -2.318644 C.3        1 UNL1     0.0854
     37 C         3.089093   2.042247   -2.572966 C.3        1 UNL1     0.0236
     38 C         2.000743   2.989174   -1.87256 C.3        1 UNL1     0.1131
     39 C         2.127404   3.324874   -0.331933 C.3        1 UNL1     0.0200
     40 C         2.509994   2.12782   0.764937 C.3        1 UNL1     0.0661
     41 C         1.755383   0.613426   0.886531 C.3        1 UNL1     0.0091
     42 C         2.431602   -1.016174   1.389059 C.3        1 UNL1     0.0661
     43 C         8.26379   -6.689471   -1.746009 C.2        1 UNL1     0.2131
     44 O         8.983546   -7.449979   -2.367552 O.2        1 UNL1     -0.2851
     45 O         10.7917   -5.567079   -2.209466 O.3        1 UNL1     -0.5056
     46 O         5.752708   -1.844028   -0.470351 O.2        1 UNL1     -0.2836
     47 C         3.855042   -1.462466   3.600948 C.3        1 UNL1     -0.0566
     48 O         1.313947   -1.32239   2.314367 O.3        1 UNL1     -0.3909
     49 C         0.922964   0.381908   -0.354828 C.3        1 UNL1     -0.0577
     50 O         3.911173   1.979829   0.876832 O.3        1 UNL1     -0.3910
     51 O         4.79587   3.48312   -1.377558 O.3        1 UNL1     -0.3753
     52 C         2.915856   0.489992   -2.646732 C.3        1 UNL1     -0.0564
     53 O         0.609621   2.799571   -2.402802 O.3        1 UNL1     -0.4608
     54 C         -0.543662   3.160698   -1.756694 C.2        1 UNL1     0.3042
     55 O         -1.403262   2.414391   -1.28984 O.2        1 UNL1     -0.2512
     56 C         -0.694181   4.644815   -1.57934 C.3        1 UNL1     0.0332
     57 C         2.89123   4.724338   -0.20448 C.3        1 UNL1     -0.0567
     58 C         7.123796   -0.703875   -3.241136 C.3        1 UNL1     0.0210
     59 C         5.973148   4.261309   -1.588042 C.3        1 UNL1     0.0372
     60 C         5.492745   1.334388   -1.934473 C.2        1 UNL1     -0.0208
     61 C         6.421955   1.261581   -0.980527 C.2        1 UNL1     0.0882
     62 H         4.468535   -1.704112   1.563903 H        1 UNL1     0.0365
     63 H         5.51089   -3.458873   1.631245 H        1 UNL1     0.0576
     64 H         3.902958   -5.653457   3.078701 H        1 UNL1     0.0615
     65 H         6.649146   -5.661016   1.589993 H        1 UNL1     0.0622
     66 H         4.948594   2.808109   -3.295423 H        1 UNL1     0.0645
     67 H         2.925323   2.271748   -3.640237 H        1 UNL1     0.0362
     68 H         2.214919   3.933697   -2.395558 H        1 UNL1     0.0741
     69 H         1.170016   3.678291   0.027113 H        1 UNL1     0.0359
     70 H         2.208657   2.627567   1.70542 H        1 UNL1     0.0600
     71 H         0.97129   0.847566   1.633079 H        1 UNL1     0.0348
     72 H         3.133722   -0.263861   1.776832 H        1 UNL1     0.0602
     73 H         5.397907   0.550124   -2.643828 H        1 UNL1     0.0628
     74 H         6.544902   1.994285   -0.182238 H        1 UNL1     0.1022
     75 H         4.732582   -9.037829   2.869054 H        1 UNL1     0.0279
     76 H         5.393257   -9.728924   1.44105 H        1 UNL1     0.0279
     77 H         6.351274   -9.595011   2.970615 H        1 UNL1     0.0279
     78 H         5.997272   -8.667255   -0.427515 H        1 UNL1     0.1553
     79 H         4.383813   -7.520315   -0.340901 H        1 UNL1     0.1484
     80 H         2.663499   -4.87007   -2.451876 H        1 UNL1     0.0317
     81 H         4.130027   -5.691042   -2.966877 H        1 UNL1     0.0317
     82 H         3.301332   -7.872779   -2.046555 H        1 UNL1     0.0428
     83 H         2.208042   -7.175272   -3.221249 H        1 UNL1     0.0428
     84 H         1.201154   -6.628874   0.876405 H        1 UNL1     0.0428
     85 H         2.630491   -7.545923   0.552152 H        1 UNL1     0.0428
     86 H         2.941093   -5.149337   1.172437 H        1 UNL1     0.0317
     87 H         2.049745   -4.584624   -0.165079 H        1 UNL1     0.0317
     88 H         1.197321   -9.027914   -1.442268 H        1 UNL1     0.0429
     89 H         0.002477   -8.199278   -0.441295 H        1 UNL1     0.0429
     90 H         -0.277306   -6.85519   -2.861613 H        1 UNL1     0.0308
     91 H         0.408486   -9.770188   -3.560203 H        1 UNL1     0.0233
     92 H         -0.306709   -8.575531   -4.672311 H        1 UNL1     0.0233
     93 H         1.325304   -8.359986   -4.076765 H        1 UNL1     0.0233
     94 H         -2.256634   -8.373021   -3.227694 H        1 UNL1     0.0233
     95 H         -1.703801   -9.302238   -1.825817 H        1 UNL1     0.0233
     96 H         -2.164119   -7.594768   -1.63439 H        1 UNL1     0.0233
     97 H         11.155041   -1.57982   -2.521167 H        1 UNL1     0.0280
     98 H         12.120829   -2.930628   -1.992244 H        1 UNL1     0.0280
     99 H         11.358096   -2.964835   -3.609896 H        1 UNL1     0.0280
     100 H         11.233529   -5.425654   -3.028251 H        1 UNL1     0.2922
     101 H         3.352265   -0.495579   3.601307 H        1 UNL1     0.0236
     102 H         4.893074   -1.383788   3.922325 H        1 UNL1     0.0236
     103 H         3.35655   -2.037409   4.399159 H        1 UNL1     0.0236
     104 H         1.587145   -1.042156   3.209801 H        1 UNL1     0.2098
     105 H         0.712488   1.280991   -0.928553 H        1 UNL1     0.0234
     106 H         1.292382   -0.406652   -1.010291 H        1 UNL1     0.0234
     107 H         0.0   -0.0   0.0 H        1 UNL1     0.0234
     108 H         4.240689   1.673636   0.00998 H        1 UNL1     0.2098
     109 H         3.236229   -0.008763   -1.721358 H        1 UNL1     0.0234
     110 H         1.894163   0.182219   -2.894041 H        1 UNL1     0.0234
     111 H         3.526912   0.052148   -3.447263 H        1 UNL1     0.0234
     112 H         -1.628932   4.863983   -1.05441 H        1 UNL1     0.0342
     113 H         0.157093   5.083771   -1.061175 H        1 UNL1     0.0342
     114 H         -0.751247   5.105326   -2.57525 H        1 UNL1     0.0342
     115 H         2.342041   5.536074   -0.701133 H        1 UNL1     0.0234
     116 H         3.077851   5.036089   0.825099 H        1 UNL1     0.0234
     117 H         3.851176   4.752691   -0.74821 H        1 UNL1     0.0234
     118 H         7.415232   0.248963   -3.71671 H        1 UNL1     0.0309
     119 H         7.51548   -1.535379   -3.835599 H        1 UNL1     0.0309
     120 H         6.035856   -0.726834   -3.367493 H        1 UNL1     0.0309
     121 H         6.829887   3.594029   -1.498089 H        1 UNL1     0.0524
     122 H         6.004712   4.708092   -2.595726 H        1 UNL1     0.0524
     123 H         6.036567   5.054521   -0.848524 H        1 UNL1     0.0524
@<TRIPOS>BOND
     1     1     2    1
     2     1    42    1
     3     2     3    2
     4     3     4    1
     5     4     5    2
     6     5     7    1
     7     6    75    1
     8     6    76    1
     9     6    77    1
    10     7     9   am
    11     9    10    1
    12    10    11    2
    13    10    43    1
    14    11    14    1
    15    11    15    1
    16    12    13   ar
    17    12    27   ar
    18    12    43    1
    19    13    14    1
    20    13    30   ar
    21    14    17    2
    22    15    16    1
    23    16    17    1
    24    16    18    1
    25    16    22    1
    26    18    19    1
    27    19    20    1
    28    20    21    1
    29    21    22    1
    30    23    24    1
    31    23    88    1
    32    23    89    1
    33    24    25    1
    34    24    26    1
    35    24    90    1
    36    25    91    1
    37    25    92    1
    38    25    93    1
    39    26    94    1
    40    26    95    1
    41    26    96    1
    42    27    28   ar
    43    28    29   ar
    44    29    30   ar
    45    29    31    1
    46    30    33    1
    47    31    32    1
    48    32    33    1
    49    32    35    1
    50    34    97    1
    51    34    98    1
    52    34    99    1
    53    35    61    1
    54    36    37    1
    55    36    60    1
    56    37    38    1
    57    38    39    1
    58    39    40    1
    59    40    41    1
    60    41    42    1
    61    45   100    1
    62    47   101    1
    63    47   102    1
    64    47   103    1
    65    48   104    1
    66    49   105    1
    67    49   106    1
    68    49   107    1
    69    50   108    1
    70    51    59    1
    71    52   109    1
    72    52   110    1
    73    52   111    1
    74    53    54    1
    75    54    55    2
    76    54    56    1
    77    56   112    1
    78    56   113    1
    79    56   114    1
    80    57   115    1
    81    57   116    1
    82    57   117    1
    83    58   118    1
    84    58   119    1
    85    58   120    1
    86    59   121    1
    87    59   122    1
    88    59   123    1
    89    60    61    2
    90     1    47    1
    91     1    62    1
    92     2    63    1
    93     3    64    1
    94     4    65    1
    95     5     6    1
    96     7     8    2
    97     9    78    1
    98    15    79    1
    99    18    80    1
   100    18    81    1
   101    19    82    1
   102    19    83    1
   103    20    23    1
   104    21    84    1
   105    21    85    1
   106    22    86    1
   107    22    87    1
   108    27    45    1
   109    28    34    1
   110    32    58    1
   111    33    46    2
   112    36    51    1
   113    36    66    1
   114    37    52    1
   115    37    67    1
   116    38    53    1
   117    38    68    1
   118    42    48    1
   119    42    72    1
   120    43    44    2
   121    60    73    1
   122    61    74    1
   123    39    69    1
   124    39    57    1
   125    40    70    1
   126    40    50    1
   127    41    71    1
   128    41    49    1
