@<TRIPOS>MOLECULE
*****
 123 128 0 0 0
SMALL
GASTEIGER

@<TRIPOS>ATOM
     1 C         4.604505   2.819854   0.786366 C.3        1 UNL1     0.0009
     2 C         5.77256   4.048059   0.035236 C.2        1 UNL1     -0.0787
     3 C         7.046502   4.356471   -0.579581 C.2        1 UNL1     -0.0649
     4 C         7.553442   5.830635   -1.240041 C.2        1 UNL1     -0.0542
     5 C         8.472061   6.453754   -2.120348 C.2        1 UNL1     0.0115
     6 C         9.75542   6.225032   -2.965332 C.3        1 UNL1     -0.0348
     7 C         8.154815   7.934267   -2.653663 C.2        1 UNL1     0.2441
     8 O         8.697981   8.934043   -2.20428 O.2        1 UNL1     -0.2702
     9 N         7.409053   7.984205   -3.84425 N.am        1 UNL1     -0.2772
     10 C         6.061245   7.971338   -3.567533 C.2        1 UNL1     0.1049
     11 C         5.52172   6.784512   -3.356399 C.2        1 UNL1     0.0801
     12 C         4.318759   9.060028   -2.140707 C.ar        1 UNL1     0.0753
     13 C         3.902892   7.739427   -1.777832 C.ar        1 UNL1     0.0305
     14 C         4.406761   6.559383   -2.476876 C.2        1 UNL1     0.0924
     15 N         6.024411   5.556582   -3.570917 N.pl3        1 UNL1     -0.3170
     16 C         4.971469   4.603947   -3.338425 C.3        1 UNL1     0.1275
     17 N         4.061432   5.281931   -2.34349 N.2        1 UNL1     -0.2557
     18 C         4.17236   4.488333   -4.632936 C.3        1 UNL1     0.0016
     19 C         5.122211   4.111888   -5.75884 C.3        1 UNL1     0.0026
     20 N         5.765355   2.848451   -5.425493 N.3        1 UNL1     -0.3018
     21 C         6.50847   2.842978   -4.163701 C.3        1 UNL1     0.0026
     22 C         5.534131   3.219204   -3.046109 C.3        1 UNL1     0.0016
     23 C         6.456279   2.252934   -6.551827 C.3        1 UNL1     0.0012
     24 C         6.185363   0.741395   -6.611919 C.3        1 UNL1     -0.0339
     25 C         7.406986   -0.028311   -7.140357 C.3        1 UNL1     -0.0615
     26 C         5.753328   0.235073   -5.246722 C.3        1 UNL1     -0.0615
     27 C         3.744662   10.184639   -1.552676 C.ar        1 UNL1     0.1347
     28 C         2.722708   10.115678   -0.622674 C.ar        1 UNL1     0.0342
     29 C         2.363421   8.804476   -0.24475 C.ar        1 UNL1     0.1435
     30 C         2.954848   7.668445   -0.798706 C.ar        1 UNL1     0.0774
     31 O         1.310624   8.568879   0.568342 O.3        1 UNL1     -0.4436
     32 C         0.976745   7.191554   0.339489 C.3        1 UNL1     0.3143
     33 C         2.246328   6.559598   -0.194368 C.2        1 UNL1     0.2504
     34 C         1.891188   11.271029   -0.139105 C.3        1 UNL1     -0.0327
     35 O         0.720559   6.597246   1.617933 O.2        1 UNL1     -0.4528
     36 C         -1.820505   3.846805   0.996523 C.3        1 UNL1     0.0854
     37 C         -1.727039   2.603778   0.030256 C.3        1 UNL1     0.0236
     38 C         -1.962265   1.181866   0.73352 C.3        1 UNL1     0.1131
     39 C         -1.150644   0.807633   2.038699 C.3        1 UNL1     0.0200
     40 C         0.480795   1.139174   2.143234 C.3        1 UNL1     0.0661
     41 C         1.651855   0.742119   0.981953 C.3        1 UNL1     0.0091
     42 C         3.198637   1.606981   0.507735 C.3        1 UNL1     0.0661
     43 C         5.318749   9.194605   -3.228903 C.2        1 UNL1     0.2131
     44 O         5.463936   10.208136   -3.888004 O.2        1 UNL1     -0.2851
     45 O         4.238385   11.432192   -1.928556 O.3        1 UNL1     -0.5056
     46 O         2.603022   5.405111   -0.118322 O.2        1 UNL1     -0.2836
     47 C         5.067861   2.441242   2.218824 C.3        1 UNL1     -0.0566
     48 O         4.03042   0.379804   0.543632 O.3        1 UNL1     -0.3909
     49 C         0.953557   0.351372   -0.301476 C.3        1 UNL1     -0.0577
     50 O         0.695776   2.453558   2.616416 O.3        1 UNL1     -0.3910
     51 O         -1.923014   3.552063   2.371314 O.3        1 UNL1     -0.3753
     52 C         -0.64931   2.812204   -1.0833 C.3        1 UNL1     -0.0564
     53 O         -2.216958   0.066358   -0.237612 O.3        1 UNL1     -0.4608
     54 C         -1.764908   -1.220658   -0.106579 C.2        1 UNL1     0.3042
     55 O         -0.597031   -1.607447   -0.123781 O.2        1 UNL1     -0.2512
     56 C         -2.859125   -2.220425   0.138106 C.3        1 UNL1     0.0332
     57 C         -2.067365   1.171869   3.297717 C.3        1 UNL1     -0.0567
     58 C         -0.093529   7.180557   -0.776719 C.3        1 UNL1     0.0210
     59 C         -3.207362   3.796787   2.942653 C.3        1 UNL1     0.0372
     60 C         -0.721788   4.840224   0.851269 C.2        1 UNL1     -0.0208
     61 C         0.003976   5.468066   1.777457 C.2        1 UNL1     0.0882
     62 H         3.864271   3.621226   0.898472 H        1 UNL1     0.0365
     63 H         5.212671   4.974768   0.177383 H        1 UNL1     0.0576
     64 H         7.767936   3.573962   -0.825184 H        1 UNL1     0.0615
     65 H         6.815136   6.548485   -0.872511 H        1 UNL1     0.0622
     66 H         -2.739111   4.366476   0.689681 H        1 UNL1     0.0645
     67 H         -2.627895   2.687526   -0.602203 H        1 UNL1     0.0362
     68 H         -3.004063   1.310514   1.064623 H        1 UNL1     0.0741
     69 H         -1.183672   -0.265294   2.173405 H        1 UNL1     0.0359
     70 H         0.753011   0.489783   2.997196 H        1 UNL1     0.0600
     71 H         1.974605   -0.246568   1.363119 H        1 UNL1     0.0348
     72 H         2.930532   1.98918   1.503405 H        1 UNL1     0.0602
     73 H         -0.637086   5.120576   -0.169259 H        1 UNL1     0.0628
     74 H         0.01831   5.201595   2.834825 H        1 UNL1     0.1022
     75 H         10.350884   5.375675   -2.551752 H        1 UNL1     0.0279
     76 H         9.607726   5.925441   -4.000466 H        1 UNL1     0.0279
     77 H         10.47321   7.054151   -2.881426 H        1 UNL1     0.0279
     78 H         7.613364   7.163423   -4.41051 H        1 UNL1     0.1553
     79 H         6.801056   5.371045   -4.178644 H        1 UNL1     0.1484
     80 H         3.387186   3.733889   -4.502234 H        1 UNL1     0.0317
     81 H         3.665605   5.431082   -4.865478 H        1 UNL1     0.0317
     82 H         5.867965   4.899256   -5.942732 H        1 UNL1     0.0428
     83 H         4.5321   4.036518   -6.6727 H        1 UNL1     0.0428
     84 H         6.914171   1.86189   -3.897835 H        1 UNL1     0.0428
     85 H         7.392298   3.494355   -4.20699 H        1 UNL1     0.0428
     86 H         6.075623   3.075878   -2.129468 H        1 UNL1     0.0317
     87 H         4.729639   2.476177   -2.984475 H        1 UNL1     0.0317
     88 H         6.071504   2.713771   -7.470995 H        1 UNL1     0.0429
     89 H         7.533346   2.460996   -6.514253 H        1 UNL1     0.0429
     90 H         5.338187   0.554707   -7.282481 H        1 UNL1     0.0308
     91 H         8.328838   0.308104   -6.656501 H        1 UNL1     0.0233
     92 H         7.287391   -1.101915   -6.977017 H        1 UNL1     0.0233
     93 H         7.548233   0.102867   -8.220022 H        1 UNL1     0.0233
     94 H         5.842419   -0.855789   -5.202906 H        1 UNL1     0.0233
     95 H         6.397635   0.657379   -4.470521 H        1 UNL1     0.0233
     96 H         4.71612   0.506043   -5.030518 H        1 UNL1     0.0233
     97 H         0.833073   11.119976   -0.330955 H        1 UNL1     0.0280
     98 H         1.981697   11.421045   0.944666 H        1 UNL1     0.0280
     99 H         2.207247   12.193707   -0.652786 H        1 UNL1     0.0280
     100 H         5.17452   11.514203   -1.878075 H        1 UNL1     0.2922
     101 H         4.432622   2.935678   2.95344 H        1 UNL1     0.0236
     102 H         6.125017   2.638428   2.393526 H        1 UNL1     0.0236
     103 H         4.945444   1.364356   2.422602 H        1 UNL1     0.0236
     104 H         3.431199   -0.378558   0.687822 H        1 UNL1     0.2098
     105 H         0.800832   1.172313   -0.997566 H        1 UNL1     0.0234
     106 H         1.391598   -0.503742   -0.81609 H        1 UNL1     0.0234
     107 H         0.0   -0.0   0.0 H        1 UNL1     0.0234
     108 H         0.618673   2.427762   3.589636 H        1 UNL1     0.2098
     109 H         -0.871998   3.679349   -1.720623 H        1 UNL1     0.0234
     110 H         0.367856   2.900558   -0.686675 H        1 UNL1     0.0234
     111 H         -0.596525   1.950369   -1.761829 H        1 UNL1     0.0234
     112 H         -3.091864   -2.263431   1.206436 H        1 UNL1     0.0342
     113 H         -3.751024   -2.002988   -0.447624 H        1 UNL1     0.0342
     114 H         -2.493684   -3.210615   -0.167084 H        1 UNL1     0.0342
     115 H         -1.558418   1.85804   3.988608 H        1 UNL1     0.0234
     116 H         -3.02574   1.623155   3.033317 H        1 UNL1     0.0234
     117 H         -2.267026   0.311933   3.959977 H        1 UNL1     0.0234
     118 H         -1.085615   6.879708   -0.396901 H        1 UNL1     0.0309
     119 H         -0.18431   8.140767   -1.294364 H        1 UNL1     0.0309
     120 H         0.116116   6.436326   -1.552784 H        1 UNL1     0.0309
     121 H         -3.917973   3.902368   2.12336 H        1 UNL1     0.0524
     122 H         -3.550608   2.960431   3.574102 H        1 UNL1     0.0524
     123 H         -3.186375   4.703964   3.539883 H        1 UNL1     0.0524
@<TRIPOS>BOND
     1     1     2    1
     2     1    42    1
     3     2     3    2
     4     3     4    1
     5     4     5    2
     6     5     7    1
     7     6    75    1
     8     6    76    1
     9     6    77    1
    10     7     9   am
    11     9    10    1
    12    10    11    2
    13    10    43    1
    14    11    14    1
    15    11    15    1
    16    12    13   ar
    17    12    27   ar
    18    12    43    1
    19    13    14    1
    20    13    30   ar
    21    14    17    2
    22    15    16    1
    23    16    17    1
    24    16    18    1
    25    16    22    1
    26    18    19    1
    27    19    20    1
    28    20    21    1
    29    21    22    1
    30    23    24    1
    31    23    88    1
    32    23    89    1
    33    24    25    1
    34    24    26    1
    35    24    90    1
    36    25    91    1
    37    25    92    1
    38    25    93    1
    39    26    94    1
    40    26    95    1
    41    26    96    1
    42    27    28   ar
    43    28    29   ar
    44    29    30   ar
    45    29    31    1
    46    30    33    1
    47    31    32    1
    48    32    33    1
    49    32    35    1
    50    34    97    1
    51    34    98    1
    52    34    99    1
    53    35    61    1
    54    36    37    1
    55    36    60    1
    56    37    38    1
    57    38    39    1
    58    39    40    1
    59    40    41    1
    60    41    42    1
    61    45   100    1
    62    47   101    1
    63    47   102    1
    64    47   103    1
    65    48   104    1
    66    49   105    1
    67    49   106    1
    68    49   107    1
    69    50   108    1
    70    51    59    1
    71    52   109    1
    72    52   110    1
    73    52   111    1
    74    53    54    1
    75    54    55    2
    76    54    56    1
    77    56   112    1
    78    56   113    1
    79    56   114    1
    80    57   115    1
    81    57   116    1
    82    57   117    1
    83    58   118    1
    84    58   119    1
    85    58   120    1
    86    59   121    1
    87    59   122    1
    88    59   123    1
    89    60    61    2
    90     1    47    1
    91     1    62    1
    92     2    63    1
    93     3    64    1
    94     4    65    1
    95     5     6    1
    96     7     8    2
    97     9    78    1
    98    15    79    1
    99    18    80    1
   100    18    81    1
   101    19    82    1
   102    19    83    1
   103    20    23    1
   104    21    84    1
   105    21    85    1
   106    22    86    1
   107    22    87    1
   108    27    45    1
   109    28    34    1
   110    32    58    1
   111    33    46    2
   112    36    51    1
   113    36    66    1
   114    37    52    1
   115    37    67    1
   116    38    53    1
   117    38    68    1
   118    42    48    1
   119    42    72    1
   120    43    44    2
   121    60    73    1
   122    61    74    1
   123    39    69    1
   124    39    57    1
   125    40    70    1
   126    40    50    1
   127    41    71    1
   128    41    49    1
