@<TRIPOS>MOLECULE
*****
 123 128 0 0 0
SMALL
GASTEIGER

@<TRIPOS>ATOM
     1 C         1.127644   -3.026015   -3.204221 C.3        1 UNL1     0.0009
     2 C         2.716666   -3.700219   -3.880605 C.2        1 UNL1     -0.0787
     3 C         3.863702   -3.573605   -4.754861 C.2        1 UNL1     -0.0649
     4 C         5.20921   -4.595734   -4.860773 C.2        1 UNL1     -0.0542
     5 C         6.556538   -4.701215   -5.285813 C.2        1 UNL1     0.0115
     6 C         7.677515   -3.994227   -6.096308 C.3        1 UNL1     -0.0348
     7 C         7.464953   -5.888531   -4.700962 C.2        1 UNL1     0.2441
     8 O         7.724657   -6.901892   -5.335138 O.2        1 UNL1     -0.2702
     9 N         8.155431   -5.573681   -3.517636 N.am        1 UNL1     -0.2772
     10 C         7.374928   -5.849188   -2.418439 C.2        1 UNL1     0.1049
     11 C         6.500417   -4.919951   -2.077895 C.2        1 UNL1     0.0801
     12 C         5.940314   -7.627229   -1.399722 C.ar        1 UNL1     0.0753
     13 C         4.937702   -6.618028   -1.241957 C.ar        1 UNL1     0.0305
     14 C         5.235425   -5.203608   -1.456036 C.2        1 UNL1     0.0924
     15 N         6.381861   -3.649269   -2.499605 N.pl3        1 UNL1     -0.3170
     16 C         5.375906   -3.010672   -1.693068 C.3        1 UNL1     0.1275
     17 N         4.466793   -4.135644   -1.26217 N.2        1 UNL1     -0.2557
     18 C         6.062424   -2.511718   -0.42522 C.3        1 UNL1     0.0016
     19 C         7.217368   -1.605961   -0.821828 C.3        1 UNL1     0.0026
     20 N         6.69343   -0.495847   -1.605514 N.3        1 UNL1     -0.3018
     21 C         5.961688   -0.87915   -2.814647 C.3        1 UNL1     0.0026
     22 C         4.803482   -1.78477   -2.392385 C.3        1 UNL1     0.0016
     23 C         7.654289   0.575349   -1.778523 C.3        1 UNL1     0.0012
     24 C         7.992822   0.760186   -3.266134 C.3        1 UNL1     -0.0339
     25 C         7.159429   -0.179062   -4.153447 C.3        1 UNL1     -0.0615
     26 C         7.810112   2.214238   -3.665045 C.3        1 UNL1     -0.0615
     27 C         5.682283   -8.95755   -1.077566 C.ar        1 UNL1     0.1347
     28 C         4.477308   -9.390787   -0.553741 C.ar        1 UNL1     0.0342
     29 C         3.489246   -8.38841   -0.453053 C.ar        1 UNL1     0.1435
     30 C         3.721823   -7.05852   -0.80593 C.ar        1 UNL1     0.0774
     31 O         2.29966   -8.628523   0.140441 O.3        1 UNL1     -0.4436
     32 C         1.79144   -7.327879   0.473474 C.3        1 UNL1     0.3143
     33 C         2.488513   -6.375026   -0.476459 C.2        1 UNL1     0.2504
     34 C         4.212375   -10.743218   0.046959 C.3        1 UNL1     -0.0327
     35 O         0.39992   -7.313963   0.131818 O.2        1 UNL1     -0.4528
     36 C         -1.243833   -4.90383   2.560279 C.3        1 UNL1     0.0854
     37 C         -0.920243   -3.38355   2.827791 C.3        1 UNL1     0.0236
     38 C         -2.168881   -2.389301   2.672494 C.3        1 UNL1     0.1131
     39 C         -3.057997   -2.443704   1.36529 C.3        1 UNL1     0.0200
     40 C         -2.344411   -2.568415   -0.137268 C.3        1 UNL1     0.0661
     41 C         -1.078808   -1.600587   -0.719649 C.3        1 UNL1     0.0091
     42 C         0.290356   -1.999597   -1.873592 C.3        1 UNL1     0.0661
     43 C         7.2924   -7.195665   -1.833167 C.2        1 UNL1     0.2131
     44 O         8.302363   -7.846368   -1.634935 O.2        1 UNL1     -0.2851
     45 O         6.697571   -9.884653   -1.303638 O.3        1 UNL1     -0.5056
     46 O         2.102642   -5.3032   -0.886516 O.2        1 UNL1     -0.2836
     47 C         -0.009205   -3.172205   -4.25121 C.3        1 UNL1     -0.0566
     48 O         0.10129   -0.782369   -2.699259 O.3        1 UNL1     -0.3909
     49 C         -0.472053   -0.841363   0.439196 C.3        1 UNL1     -0.0577
     50 O         -2.110044   -3.921965   -0.469981 O.3        1 UNL1     -0.3910
     51 O         -2.529901   -5.17996   2.053116 O.3        1 UNL1     -0.3753
     52 C         0.514245   -2.999173   2.338459 C.3        1 UNL1     -0.0564
     53 O         -1.931309   -1.030077   3.262746 O.3        1 UNL1     -0.4608
     54 C         -2.810044   -0.344998   4.060507 C.2        1 UNL1     0.3042
     55 O         -3.476629   -0.792001   4.993079 O.2        1 UNL1     -0.2512
     56 C         -2.884859   1.123   3.750511 C.3        1 UNL1     0.0332
     57 C         -4.313297   -3.385338   1.674677 C.3        1 UNL1     -0.0567
     58 C         2.264161   -7.029581   1.915377 C.3        1 UNL1     0.0210
     59 C         -2.558015   -6.087295   0.95229 C.3        1 UNL1     0.0372
     60 C         -0.274031   -5.607239   1.677182 C.2        1 UNL1     -0.0208
     61 C         -0.481068   -6.441066   0.657078 C.2        1 UNL1     0.0882
     62 H         1.05997   -3.899642   -2.544746 H        1 UNL1     0.0365
     63 H         2.748777   -4.675706   -3.390846 H        1 UNL1     0.0576
     64 H         4.040583   -2.668107   -5.339578 H        1 UNL1     0.0615
     65 H         4.899455   -5.491612   -4.315852 H        1 UNL1     0.0622
     66 H         -1.155868   -5.382327   3.545849 H        1 UNL1     0.0645
     67 H         -0.735754   -3.336024   3.915111 H        1 UNL1     0.0362
     68 H         -2.811763   -2.774031   3.478848 H        1 UNL1     0.0741
     69 H         -3.617445   -1.52111   1.286257 H        1 UNL1     0.0359
     70 H         -3.195871   -2.269481   -0.778138 H        1 UNL1     0.0600
     71 H         -1.660751   -0.802532   -1.221056 H        1 UNL1     0.0348
     72 H         -0.478065   -2.769071   -2.037161 H        1 UNL1     0.0602
     73 H         0.709146   -5.457288   2.048834 H        1 UNL1     0.0628
     74 H         -1.448409   -6.604674   0.180925 H        1 UNL1     0.1022
     75 H         7.475998   -4.069538   -7.192097 H        1 UNL1     0.0279
     76 H         7.778894   -2.921205   -5.949967 H        1 UNL1     0.0279
     77 H         8.647041   -4.507691   -6.018381 H        1 UNL1     0.0279
     78 H         8.368461   -4.578493   -3.500398 H        1 UNL1     0.1553
     79 H         7.119931   -3.141174   -2.951298 H        1 UNL1     0.1484
     80 H         5.32929   -1.978814   0.19227 H        1 UNL1     0.0317
     81 H         6.429191   -3.349911   0.176914 H        1 UNL1     0.0317
     82 H         7.991331   -2.153623   -1.379466 H        1 UNL1     0.0428
     83 H         7.693972   -1.262901   0.096981 H        1 UNL1     0.0428
     84 H         5.510933   -0.032369   -3.341517 H        1 UNL1     0.0428
     85 H         6.621631   -1.338592   -3.56345 H        1 UNL1     0.0428
     86 H         4.215971   -1.935842   -3.278949 H        1 UNL1     0.0317
     87 H         4.123615   -1.238173   -1.727472 H        1 UNL1     0.0317
     88 H         7.202054   1.50342   -1.405077 H        1 UNL1     0.0429
     89 H         8.560546   0.397789   -1.185273 H        1 UNL1     0.0429
     90 H         9.054928   0.537713   -3.423137 H        1 UNL1     0.0308
     91 H         7.346557   -1.228611   -3.907414 H        1 UNL1     0.0233
     92 H         6.092906   0.030544   -4.042984 H        1 UNL1     0.0233
     93 H         7.386268   -0.056888   -5.219493 H        1 UNL1     0.0233
     94 H         6.789799   2.542522   -3.439155 H        1 UNL1     0.0233
     95 H         8.500579   2.846375   -3.099696 H        1 UNL1     0.0233
     96 H         7.991701   2.360757   -4.733467 H        1 UNL1     0.0233
     97 H         4.136553   -10.700513   1.129391 H        1 UNL1     0.0280
     98 H         3.26529   -11.173545   -0.303903 H        1 UNL1     0.0280
     99 H         5.033267   -11.430649   -0.215092 H        1 UNL1     0.0280
     100 H         7.438932   -9.801069   -0.730036 H        1 UNL1     0.2922
     101 H         -0.165034   -4.226263   -4.479979 H        1 UNL1     0.0236
     102 H         0.156693   -2.578859   -5.149765 H        1 UNL1     0.0236
     103 H         -0.9798   -2.824287   -3.859941 H        1 UNL1     0.0236
     104 H         -0.858081   -0.601594   -2.742824 H        1 UNL1     0.2098
     105 H         -1.194787   -0.476366   1.164623 H        1 UNL1     0.0234
     106 H         0.343153   -1.358267   0.945335 H        1 UNL1     0.0234
     107 H         0.0   0.0   0.0 H        1 UNL1     0.0234
     108 H         -2.508749   -4.467292   0.2353 H        1 UNL1     0.2098
     109 H         1.015798   -3.831707   1.825581 H        1 UNL1     0.0234
     110 H         0.526526   -2.112233   1.695862 H        1 UNL1     0.0234
     111 H         1.169249   -2.729099   3.177492 H        1 UNL1     0.0234
     112 H         -1.900392   1.581963   3.882886 H        1 UNL1     0.0342
     113 H         -3.272359   1.311144   2.750366 H        1 UNL1     0.0342
     114 H         -3.573548   1.590449   4.467703 H        1 UNL1     0.0342
     115 H         -4.632754   -3.308681   2.723132 H        1 UNL1     0.0234
     116 H         -5.185371   -3.182079   1.05 H        1 UNL1     0.0234
     117 H         -4.084359   -4.46234   1.599866 H        1 UNL1     0.0234
     118 H         1.456169   -7.171526   2.654299 H        1 UNL1     0.0309
     119 H         3.13214   -7.625495   2.214876 H        1 UNL1     0.0309
     120 H         2.55281   -5.982045   2.054865 H        1 UNL1     0.0309
     121 H         -2.99962   -5.563806   0.104763 H        1 UNL1     0.0524
     122 H         -1.547914   -6.412255   0.652067 H        1 UNL1     0.0524
     123 H         -3.150421   -6.962959   1.202013 H        1 UNL1     0.0524
@<TRIPOS>BOND
     1     1     2    1
     2     1    42    1
     3     2     3    2
     4     3     4    1
     5     4     5    2
     6     5     7    1
     7     6    75    1
     8     6    76    1
     9     6    77    1
    10     7     9   am
    11     9    10    1
    12    10    11    2
    13    10    43    1
    14    11    14    1
    15    11    15    1
    16    12    13   ar
    17    12    27   ar
    18    12    43    1
    19    13    14    1
    20    13    30   ar
    21    14    17    2
    22    15    16    1
    23    16    17    1
    24    16    18    1
    25    16    22    1
    26    18    19    1
    27    19    20    1
    28    20    21    1
    29    21    22    1
    30    23    24    1
    31    23    88    1
    32    23    89    1
    33    24    25    1
    34    24    26    1
    35    24    90    1
    36    25    91    1
    37    25    92    1
    38    25    93    1
    39    26    94    1
    40    26    95    1
    41    26    96    1
    42    27    28   ar
    43    28    29   ar
    44    29    30   ar
    45    29    31    1
    46    30    33    1
    47    31    32    1
    48    32    33    1
    49    32    35    1
    50    34    97    1
    51    34    98    1
    52    34    99    1
    53    35    61    1
    54    36    37    1
    55    36    60    1
    56    37    38    1
    57    38    39    1
    58    39    40    1
    59    40    41    1
    60    41    42    1
    61    45   100    1
    62    47   101    1
    63    47   102    1
    64    47   103    1
    65    48   104    1
    66    49   105    1
    67    49   106    1
    68    49   107    1
    69    50   108    1
    70    51    59    1
    71    52   109    1
    72    52   110    1
    73    52   111    1
    74    53    54    1
    75    54    55    2
    76    54    56    1
    77    56   112    1
    78    56   113    1
    79    56   114    1
    80    57   115    1
    81    57   116    1
    82    57   117    1
    83    58   118    1
    84    58   119    1
    85    58   120    1
    86    59   121    1
    87    59   122    1
    88    59   123    1
    89    60    61    2
    90     1    47    1
    91     1    62    1
    92     2    63    1
    93     3    64    1
    94     4    65    1
    95     5     6    1
    96     7     8    2
    97     9    78    1
    98    15    79    1
    99    18    80    1
   100    18    81    1
   101    19    82    1
   102    19    83    1
   103    20    23    1
   104    21    84    1
   105    21    85    1
   106    22    86    1
   107    22    87    1
   108    27    45    1
   109    28    34    1
   110    32    58    1
   111    33    46    2
   112    36    51    1
   113    36    66    1
   114    37    52    1
   115    37    67    1
   116    38    53    1
   117    38    68    1
   118    42    48    1
   119    42    72    1
   120    43    44    2
   121    60    73    1
   122    61    74    1
   123    39    69    1
   124    39    57    1
   125    40    70    1
   126    40    50    1
   127    41    71    1
   128    41    49    1
