@<TRIPOS>MOLECULE
*****
 123 128 0 0 0
SMALL
GASTEIGER

@<TRIPOS>ATOM
     1 C         4.756726   0.430624   -0.52864 C.3        1 UNL1     0.0009
     2 C         6.186782   -0.68652   -0.149215 C.2        1 UNL1     -0.0787
     3 C         7.392919   -0.973017   0.598581 C.2        1 UNL1     -0.0649
     4 C         8.316996   -2.39149   0.579287 C.2        1 UNL1     -0.0542
     5 C         9.277555   -3.161034   1.280862 C.2        1 UNL1     0.0115
     6 C         10.264337   -3.148891   2.480627 C.3        1 UNL1     -0.0348
     7 C         9.461973   -4.709278   0.898867 C.2        1 UNL1     0.2441
     8 O         10.389043   -5.119929   0.214446 O.2        1 UNL1     -0.2702
     9 N         8.638927   -5.594942   1.616046 N.am        1 UNL1     -0.2772
     10 C         7.429736   -5.750102   0.977999 C.2        1 UNL1     0.1049
     11 C         6.523084   -4.81942   1.21472 C.2        1 UNL1     0.0801
     12 C         6.413242   -6.226246   -1.257479 C.ar        1 UNL1     0.0753
     13 C         5.590844   -5.074911   -1.041381 C.ar        1 UNL1     0.0305
     14 C         5.528456   -4.412433   0.259496 C.2        1 UNL1     0.0924
     15 N         6.505067   -3.847175   2.14259 N.pl3        1 UNL1     -0.3170
     16 C         5.215007   -3.21227   2.088772 C.3        1 UNL1     0.1275
     17 N         4.756998   -3.407381   0.664033 N.2        1 UNL1     -0.2557
     18 C         4.268286   -4.037799   2.954752 C.3        1 UNL1     0.0016
     19 C         4.857059   -4.145721   4.352353 C.3        1 UNL1     0.0026
     20 N         5.02658   -2.804241   4.89339 N.3        1 UNL1     -0.3018
     21 C         5.872859   -1.914456   4.095604 C.3        1 UNL1     0.0026
     22 C         5.260384   -1.816857   2.697303 C.3        1 UNL1     0.0016
     23 C         5.296215   -2.800418   6.317443 C.3        1 UNL1     0.0012
     24 C         6.65788   -3.450261   6.609553 C.3        1 UNL1     -0.0339
     25 C         7.72505   -2.998234   5.599169 C.3        1 UNL1     -0.0615
     26 C         7.080097   -3.154909   8.038287 C.3        1 UNL1     -0.0615
     27 C         6.376096   -6.923851   -2.462504 C.ar        1 UNL1     0.1347
     28 C         5.531222   -6.590139   -3.505995 C.ar        1 UNL1     0.0342
     29 C         4.766325   -5.424335   -3.289205 C.ar        1 UNL1     0.1435
     30 C         4.819649   -4.694419   -2.101097 C.ar        1 UNL1     0.0774
     31 O         3.816397   -5.031565   -4.165775 O.3        1 UNL1     -0.4436
     32 C         2.971471   -4.148069   -3.413174 C.3        1 UNL1     0.3143
     33 C         3.837426   -3.644935   -2.275987 C.2        1 UNL1     0.2504
     34 C         5.254878   -7.432031   -4.720471 C.3        1 UNL1     -0.0327
     35 O         2.683081   -3.020122   -4.248529 O.2        1 UNL1     -0.4528
     36 C         -0.75069   -1.794215   -3.19285 C.3        1 UNL1     0.0854
     37 C         -1.248831   -1.329563   -1.770361 C.3        1 UNL1     0.0236
     38 C         -1.897988   0.136203   -1.727124 C.3        1 UNL1     0.1131
     39 C         -1.11897   1.358884   -2.359936 C.3        1 UNL1     0.0200
     40 C         0.518424   1.543111   -2.100242 C.3        1 UNL1     0.0661
     41 C         1.298586   1.4843   -0.595085 C.3        1 UNL1     0.0091
     42 C         2.979316   0.900728   -0.147879 C.3        1 UNL1     0.0661
     43 C         7.241488   -6.706023   -0.123423 C.2        1 UNL1     0.2131
     44 O         7.662956   -7.844791   -0.032264 O.2        1 UNL1     -0.2851
     45 O         7.241524   -8.006075   -2.608327 O.3        1 UNL1     -0.5056
     46 O         3.749961   -2.60246   -1.666522 O.2        1 UNL1     -0.2836
     47 C         5.230173   1.645372   -1.371384 C.3        1 UNL1     -0.0566
     48 O         3.297082   2.091325   0.677119 O.3        1 UNL1     -0.3909
     49 C         0.344649   0.907017   0.426797 C.3        1 UNL1     -0.0577
     50 O         1.262537   0.818409   -3.058796 O.3        1 UNL1     -0.3910
     51 O         -0.774639   -0.812983   -4.204799 O.3        1 UNL1     -0.3753
     52 C         -0.325111   -1.863603   -0.627342 C.3        1 UNL1     -0.0564
     53 O         -2.670185   0.414215   -0.470641 O.3        1 UNL1     -0.4608
     54 C         -4.036314   0.444996   -0.367324 C.2        1 UNL1     0.3042
     55 O         -4.847612   0.685988   -1.260384 O.2        1 UNL1     -0.2512
     56 C         -4.544437   0.08176   0.998905 C.3        1 UNL1     0.0332
     57 C         -1.664414   1.55912   -3.850094 C.3        1 UNL1     -0.0567
     58 C         1.836972   -5.020903   -2.827851 C.3        1 UNL1     0.0210
     59 C         -1.083714   -1.3038   -5.508423 C.3        1 UNL1     0.0372
     60 C         0.6079   -2.401555   -3.215928 C.2        1 UNL1     -0.0208
     61 C         1.628002   -2.206243   -4.052583 C.2        1 UNL1     0.0882
     62 H         4.385502   -0.317636   -1.239281 H        1 UNL1     0.0365
     63 H         6.031668   -1.474315   -0.889343 H        1 UNL1     0.0576
     64 H         7.736406   -0.319148   1.403305 H        1 UNL1     0.0615
     65 H         7.950021   -2.929663   -0.298883 H        1 UNL1     0.0622
     66 H         -1.444516   -2.596962   -3.479641 H        1 UNL1     0.0645
     67 H         -2.129459   -1.965496   -1.573779 H        1 UNL1     0.0362
     68 H         -2.766275   -0.027734   -2.38342 H        1 UNL1     0.0741
     69 H         -1.527413   2.276922   -1.958952 H        1 UNL1     0.0359
     70 H         0.640763   2.602079   -2.398037 H        1 UNL1     0.0600
     71 H         1.280753   2.558658   -0.326024 H        1 UNL1     0.0348
     72 H         3.003164   1.093198   -1.230331 H        1 UNL1     0.0602
     73 H         0.656298   -3.176673   -2.491983 H        1 UNL1     0.0628
     74 H         1.68067   -1.397867   -4.782645 H        1 UNL1     0.1022
     75 H         9.948456   -2.393893   3.240385 H        1 UNL1     0.0279
     76 H         10.324396   -4.061967   3.068636 H        1 UNL1     0.0279
     77 H         11.262287   -2.776377   2.206709 H        1 UNL1     0.0279
     78 H         8.450588   -5.213885   2.540925 H        1 UNL1     0.1553
     79 H         7.072306   -3.856604   2.970287 H        1 UNL1     0.1484
     80 H         3.284489   -3.553392   2.970895 H        1 UNL1     0.0317
     81 H         4.119185   -5.036079   2.529478 H        1 UNL1     0.0317
     82 H         5.809785   -4.695471   4.351444 H        1 UNL1     0.0428
     83 H         4.167113   -4.739636   4.952595 H        1 UNL1     0.0428
     84 H         5.919156   -0.891129   4.480922 H        1 UNL1     0.0428
     85 H         6.920839   -2.244618   4.088722 H        1 UNL1     0.0428
     86 H         5.825311   -1.059641   2.185961 H        1 UNL1     0.0317
     87 H         4.254021   -1.384881   2.758341 H        1 UNL1     0.0317
     88 H         5.327195   -1.756647   6.656377 H        1 UNL1     0.0429
     89 H         4.492572   -3.296472   6.876785 H        1 UNL1     0.0429
     90 H         6.55665   -4.540203   6.54638 H        1 UNL1     0.0308
     91 H         7.617377   -3.523272   4.645312 H        1 UNL1     0.0233
     92 H         7.660812   -1.921571   5.425159 H        1 UNL1     0.0233
     93 H         8.744656   -3.190237   5.954661 H        1 UNL1     0.0233
     94 H         7.996162   -2.554395   8.044946 H        1 UNL1     0.0233
     95 H         6.299074   -2.584054   8.548277 H        1 UNL1     0.0233
     96 H         7.26655   -4.075875   8.597774 H        1 UNL1     0.0233
     97 H         6.148225   -7.59308   -5.316478 H        1 UNL1     0.0280
     98 H         4.885897   -8.431581   -4.455879 H        1 UNL1     0.0280
     99 H         4.503073   -6.932034   -5.352838 H        1 UNL1     0.0280
     100 H         7.487619   -8.422157   -1.800902 H        1 UNL1     0.2922
     101 H         4.545809   2.481312   -1.228185 H        1 UNL1     0.0236
     102 H         5.370256   1.407408   -2.425298 H        1 UNL1     0.0236
     103 H         6.209839   2.025176   -1.036428 H        1 UNL1     0.0236
     104 H         3.024353   1.895558   1.594868 H        1 UNL1     0.2098
     105 H         0.801353   0.671522   1.384803 H        1 UNL1     0.0234
     106 H         -0.567871   1.484301   0.575043 H        1 UNL1     0.0234
     107 H         -0.0   0.0   0.0 H        1 UNL1     0.0234
     108 H         2.207794   0.986192   -2.879612 H        1 UNL1     0.2098
     109 H         -0.662022   -1.537211   0.366474 H        1 UNL1     0.0234
     110 H         -0.214436   -2.953281   -0.637127 H        1 UNL1     0.0234
     111 H         0.702677   -1.490711   -0.730061 H        1 UNL1     0.0234
     112 H         -4.624659   -1.005792   1.089129 H        1 UNL1     0.0342
     113 H         -3.921228   0.49459   1.790755 H        1 UNL1     0.0342
     114 H         -5.552053   0.504461   1.11379 H        1 UNL1     0.0342
     115 H         -2.206921   2.507944   -3.962374 H        1 UNL1     0.0234
     116 H         -0.885779   1.533566   -4.615028 H        1 UNL1     0.0234
     117 H         -2.444923   0.832469   -4.134217 H        1 UNL1     0.0234
     118 H         0.871903   -4.485105   -2.804018 H        1 UNL1     0.0309
     119 H         1.707063   -5.96929   -3.358783 H        1 UNL1     0.0309
     120 H         2.006816   -5.282136   -1.777605 H        1 UNL1     0.0309
     121 H         -1.039882   -2.391898   -5.469997 H        1 UNL1     0.0524
     122 H         -2.100419   -1.023695   -5.830744 H        1 UNL1     0.0524
     123 H         -0.367533   -0.925139   -6.23216 H        1 UNL1     0.0524
@<TRIPOS>BOND
     1     1     2    1
     2     1    42    1
     3     2     3    2
     4     3     4    1
     5     4     5    2
     6     5     7    1
     7     6    75    1
     8     6    76    1
     9     6    77    1
    10     7     9   am
    11     9    10    1
    12    10    11    2
    13    10    43    1
    14    11    14    1
    15    11    15    1
    16    12    13   ar
    17    12    27   ar
    18    12    43    1
    19    13    14    1
    20    13    30   ar
    21    14    17    2
    22    15    16    1
    23    16    17    1
    24    16    18    1
    25    16    22    1
    26    18    19    1
    27    19    20    1
    28    20    21    1
    29    21    22    1
    30    23    24    1
    31    23    88    1
    32    23    89    1
    33    24    25    1
    34    24    26    1
    35    24    90    1
    36    25    91    1
    37    25    92    1
    38    25    93    1
    39    26    94    1
    40    26    95    1
    41    26    96    1
    42    27    28   ar
    43    28    29   ar
    44    29    30   ar
    45    29    31    1
    46    30    33    1
    47    31    32    1
    48    32    33    1
    49    32    35    1
    50    34    97    1
    51    34    98    1
    52    34    99    1
    53    35    61    1
    54    36    37    1
    55    36    60    1
    56    37    38    1
    57    38    39    1
    58    39    40    1
    59    40    41    1
    60    41    42    1
    61    45   100    1
    62    47   101    1
    63    47   102    1
    64    47   103    1
    65    48   104    1
    66    49   105    1
    67    49   106    1
    68    49   107    1
    69    50   108    1
    70    51    59    1
    71    52   109    1
    72    52   110    1
    73    52   111    1
    74    53    54    1
    75    54    55    2
    76    54    56    1
    77    56   112    1
    78    56   113    1
    79    56   114    1
    80    57   115    1
    81    57   116    1
    82    57   117    1
    83    58   118    1
    84    58   119    1
    85    58   120    1
    86    59   121    1
    87    59   122    1
    88    59   123    1
    89    60    61    2
    90     1    47    1
    91     1    62    1
    92     2    63    1
    93     3    64    1
    94     4    65    1
    95     5     6    1
    96     7     8    2
    97     9    78    1
    98    15    79    1
    99    18    80    1
   100    18    81    1
   101    19    82    1
   102    19    83    1
   103    20    23    1
   104    21    84    1
   105    21    85    1
   106    22    86    1
   107    22    87    1
   108    27    45    1
   109    28    34    1
   110    32    58    1
   111    33    46    2
   112    36    51    1
   113    36    66    1
   114    37    52    1
   115    37    67    1
   116    38    53    1
   117    38    68    1
   118    42    48    1
   119    42    72    1
   120    43    44    2
   121    60    73    1
   122    61    74    1
   123    39    69    1
   124    39    57    1
   125    40    70    1
   126    40    50    1
   127    41    71    1
   128    41    49    1
