@<TRIPOS>MOLECULE
*****
 123 128 0 0 0
SMALL
GASTEIGER

@<TRIPOS>ATOM
     1 C         1.28199   -2.805249   -2.908279 C.3        1 UNL1     0.0009
     2 C         0.782263   -2.894685   -4.691341 C.2        1 UNL1     -0.0787
     3 C         0.025448   -3.522918   -5.753697 C.2        1 UNL1     -0.0649
     4 C         -0.129433   -3.015571   -7.361481 C.2        1 UNL1     -0.0542
     5 C         -0.910237   -3.11295   -8.53959 C.2        1 UNL1     0.0115
     6 C         -2.078643   -3.884495   -9.212545 C.3        1 UNL1     -0.0348
     7 C         -0.737201   -1.997187   -9.680695 C.2        1 UNL1     0.2441
     8 O         -0.097138   -2.187382   -10.705718 O.2        1 UNL1     -0.2702
     9 N         -1.582639   -0.882048   -9.54709 N.am        1 UNL1     -0.2772
     10 C         -0.994189   0.074123   -8.751612 C.2        1 UNL1     0.1049
     11 C         -1.120186   -0.095352   -7.447916 C.2        1 UNL1     0.0801
     12 C         1.137124   1.340921   -8.419854 C.ar        1 UNL1     0.0753
     13 C         1.062908   0.951432   -7.044573 C.ar        1 UNL1     0.0305
     14 C         -0.137648   0.331164   -6.488708 C.2        1 UNL1     0.0924
     15 N         -1.908587   -0.937805   -6.758552 N.pl3        1 UNL1     -0.3170
     16 C         -1.793859   -0.60468   -5.363518 C.3        1 UNL1     0.1275
     17 N         -0.417323   -0.000189   -5.231364 N.2        1 UNL1     -0.2557
     18 C         -2.780923   0.525032   -5.085748 C.3        1 UNL1     0.0016
     19 C         -4.168996   0.073655   -5.511308 C.3        1 UNL1     0.0026
     20 N         -4.520835   -1.125315   -4.763172 N.3        1 UNL1     -0.3018
     21 C         -3.594548   -2.248888   -4.917912 C.3        1 UNL1     0.0026
     22 C         -2.20762   -1.774558   -4.480491 C.3        1 UNL1     0.0016
     23 C         -5.926035   -1.464147   -4.869238 C.3        1 UNL1     0.0012
     24 C         -6.17849   -2.332036   -6.112135 C.3        1 UNL1     -0.0339
     25 C         -5.045144   -3.3484   -6.327974 C.3        1 UNL1     -0.0615
     26 C         -7.529984   -3.016482   -6.003613 C.3        1 UNL1     -0.0615
     27 C         2.236111   2.039771   -8.913771 C.ar        1 UNL1     0.1347
     28 C         3.299023   2.438293   -8.122918 C.ar        1 UNL1     0.0342
     29 C         3.227153   2.001347   -6.783113 C.ar        1 UNL1     0.1435
     30 C         2.149588   1.269476   -6.282675 C.ar        1 UNL1     0.0774
     31 O         4.130692   2.401411   -5.861933 O.3        1 UNL1     -0.4436
     32 C         3.488417   2.16913   -4.599237 C.3        1 UNL1     0.3143
     33 C         2.445973   1.104467   -4.874948 C.2        1 UNL1     0.2504
     34 C         4.383414   3.399831   -8.522467 C.3        1 UNL1     -0.0327
     35 O         4.462733   1.583093   -3.727159 O.2        1 UNL1     -0.4528
     36 C         3.517756   2.686147   -0.220255 C.3        1 UNL1     0.0854
     37 C         2.161848   2.478383   0.558121 C.3        1 UNL1     0.0236
     38 C         2.304554   1.758527   1.984019 C.3        1 UNL1     0.1131
     39 C         3.11105   0.402821   2.101904 C.3        1 UNL1     0.0200
     40 C         2.909394   -0.801748   0.965777 C.3        1 UNL1     0.0661
     41 C         1.424988   -1.424065   0.430173 C.3        1 UNL1     0.0091
     42 C         0.934802   -2.088836   -1.207875 C.3        1 UNL1     0.0661
     43 C         -0.035525   1.054391   -9.28302 C.2        1 UNL1     0.2131
     44 O         -0.271541   1.651411   -10.317718 O.2        1 UNL1     -0.2851
     45 O         2.25084   2.340917   -10.274114 O.3        1 UNL1     -0.5056
     46 O         1.981178   0.289023   -4.11018 O.2        1 UNL1     -0.2836
     47 C         2.28965   -3.937646   -2.573197 C.3        1 UNL1     -0.0566
     48 O         0.284079   -3.29865   -0.649282 O.3        1 UNL1     -0.3909
     49 C         0.316828   -0.498377   0.880261 C.3        1 UNL1     -0.0577
     50 O         3.775229   -0.603697   -0.13369 O.3        1 UNL1     -0.3910
     51 O         4.652196   2.066378   0.342207 O.3        1 UNL1     -0.3753
     52 C         0.974793   2.172199   -0.412498 C.3        1 UNL1     -0.0564
     53 O         1.082778   1.886158   2.846167 O.3        1 UNL1     -0.4608
     54 C         0.591652   0.914286   3.678147 C.2        1 UNL1     0.3042
     55 O         0.472405   0.968722   4.901526 O.2        1 UNL1     -0.2512
     56 C         0.109255   -0.310113   2.953681 C.3        1 UNL1     0.0332
     57 C         4.604085   0.766825   2.545213 C.3        1 UNL1     -0.0567
     58 C         2.769485   3.486271   -4.22533 C.3        1 UNL1     0.0210
     59 C         5.586016   2.960325   0.946117 C.3        1 UNL1     0.0372
     60 C         3.484213   2.297594   -1.656591 C.2        1 UNL1     -0.0208
     61 C         4.358584   1.601604   -2.384476 C.2        1 UNL1     0.0882
     62 H         1.878091   -1.914333   -3.139889 H        1 UNL1     0.0365
     63 H         1.406303   -2.106351   -5.117457 H        1 UNL1     0.0576
     64 H         -0.677113   -4.334881   -5.553123 H        1 UNL1     0.0615
     65 H         0.661057   -2.268987   -7.476464 H        1 UNL1     0.0622
     66 H         3.680545   3.773041   -0.20585 H        1 UNL1     0.0645
     67 H         1.864763   3.498893   0.856216 H        1 UNL1     0.0362
     68 H         2.916305   2.508482   2.508281 H        1 UNL1     0.0741
     69 H         2.829976   -0.090394   3.022852 H        1 UNL1     0.0359
     70 H         3.349571   -1.656581   1.514015 H        1 UNL1     0.0600
     71 H         1.303034   -2.268265   1.136863 H        1 UNL1     0.0348
     72 H         2.033579   -2.125502   -1.182182 H        1 UNL1     0.0602
     73 H         2.663357   2.77736   -2.129103 H        1 UNL1     0.0628
     74 H         5.191886   1.033276   -1.969928 H        1 UNL1     0.1022
     75 H         -1.736061   -4.888569   -9.561125 H        1 UNL1     0.0279
     76 H         -2.925352   -4.133545   -8.576836 H        1 UNL1     0.0279
     77 H         -2.402463   -3.425571   -10.158183 H        1 UNL1     0.0279
     78 H         -2.451032   -1.163207   -9.096622 H        1 UNL1     0.1553
     79 H         -2.719186   -1.3848   -7.145926 H        1 UNL1     0.1484
     80 H         -2.750051   0.772239   -4.017712 H        1 UNL1     0.0317
     81 H         -2.497085   1.434377   -5.626285 H        1 UNL1     0.0317
     82 H         -4.224358   -0.1056   -6.595151 H        1 UNL1     0.0428
     83 H         -4.856728   0.89464   -5.306224 H        1 UNL1     0.0428
     84 H         -3.837355   -3.107936   -4.284752 H        1 UNL1     0.0428
     85 H         -3.61258   -2.655984   -5.938335 H        1 UNL1     0.0428
     86 H         -1.588278   -2.652284   -4.479899 H        1 UNL1     0.0317
     87 H         -2.228721   -1.478121   -3.424662 H        1 UNL1     0.0317
     88 H         -6.206669   -2.04026   -3.977816 H        1 UNL1     0.0429
     89 H         -6.55357   -0.563683   -4.88093 H        1 UNL1     0.0429
     90 H         -6.240369   -1.685238   -6.995332 H        1 UNL1     0.0308
     91 H         -4.781687   -3.854552   -5.394431 H        1 UNL1     0.0233
     92 H         -5.332354   -4.095033   -7.072057 H        1 UNL1     0.0233
     93 H         -4.128646   -2.878225   -6.704541 H        1 UNL1     0.0233
     94 H         -7.557911   -3.901668   -6.648207 H        1 UNL1     0.0233
     95 H         -7.701615   -3.343484   -4.974257 H        1 UNL1     0.0233
     96 H         -8.34158   -2.34659   -6.301148 H        1 UNL1     0.0233
     97 H         5.054702   2.972731   -9.261513 H        1 UNL1     0.0280
     98 H         3.979219   4.314081   -8.976371 H        1 UNL1     0.0280
     99 H         4.97674   3.676247   -7.635532 H        1 UNL1     0.0280
     100 H         1.831232   3.152403   -10.500038 H        1 UNL1     0.2922
     101 H         3.295555   -3.524835   -2.499719 H        1 UNL1     0.0236
     102 H         2.240852   -4.774591   -3.268987 H        1 UNL1     0.0236
     103 H         2.097183   -4.383689   -1.583149 H        1 UNL1     0.0236
     104 H         0.827031   -3.604713   0.103379 H        1 UNL1     0.2098
     105 H         -0.546408   -1.004534   1.305043 H        1 UNL1     0.0234
     106 H         0.638246   0.312881   1.533313 H        1 UNL1     0.0234
     107 H         0.0   0.0   0.0 H        1 UNL1     0.0234
     108 H         3.64054   -1.351372   -0.747374 H        1 UNL1     0.2098
     109 H         0.797191   2.99096   -1.123694 H        1 UNL1     0.0234
     110 H         1.098155   1.231578   -0.959999 H        1 UNL1     0.0234
     111 H         0.030176   2.041341   0.13204 H        1 UNL1     0.0234
     112 H         -0.868267   -0.611489   3.34223 H        1 UNL1     0.0342
     113 H         0.071889   -0.160062   1.875751 H        1 UNL1     0.0342
     114 H         0.816809   -1.127006   3.151715 H        1 UNL1     0.0342
     115 H         5.03521   -0.003574   3.199281 H        1 UNL1     0.0234
     116 H         5.292396   0.911302   1.710106 H        1 UNL1     0.0234
     117 H         4.665451   1.656743   3.194998 H        1 UNL1     0.0234
     118 H         1.800814   3.303192   -3.728174 H        1 UNL1     0.0309
     119 H         3.377021   4.143368   -3.594991 H        1 UNL1     0.0309
     120 H         2.494113   4.079067   -5.10446 H        1 UNL1     0.0309
     121 H         5.278346   3.108945   1.980818 H        1 UNL1     0.0524
     122 H         6.609407   2.549812   0.959789 H        1 UNL1     0.0524
     123 H         5.593808   3.909262   0.417392 H        1 UNL1     0.0524
@<TRIPOS>BOND
     1     1     2    1
     2     1    42    1
     3     2     3    2
     4     3     4    1
     5     4     5    2
     6     5     7    1
     7     6    75    1
     8     6    76    1
     9     6    77    1
    10     7     9   am
    11     9    10    1
    12    10    11    2
    13    10    43    1
    14    11    14    1
    15    11    15    1
    16    12    13   ar
    17    12    27   ar
    18    12    43    1
    19    13    14    1
    20    13    30   ar
    21    14    17    2
    22    15    16    1
    23    16    17    1
    24    16    18    1
    25    16    22    1
    26    18    19    1
    27    19    20    1
    28    20    21    1
    29    21    22    1
    30    23    24    1
    31    23    88    1
    32    23    89    1
    33    24    25    1
    34    24    26    1
    35    24    90    1
    36    25    91    1
    37    25    92    1
    38    25    93    1
    39    26    94    1
    40    26    95    1
    41    26    96    1
    42    27    28   ar
    43    28    29   ar
    44    29    30   ar
    45    29    31    1
    46    30    33    1
    47    31    32    1
    48    32    33    1
    49    32    35    1
    50    34    97    1
    51    34    98    1
    52    34    99    1
    53    35    61    1
    54    36    37    1
    55    36    60    1
    56    37    38    1
    57    38    39    1
    58    39    40    1
    59    40    41    1
    60    41    42    1
    61    45   100    1
    62    47   101    1
    63    47   102    1
    64    47   103    1
    65    48   104    1
    66    49   105    1
    67    49   106    1
    68    49   107    1
    69    50   108    1
    70    51    59    1
    71    52   109    1
    72    52   110    1
    73    52   111    1
    74    53    54    1
    75    54    55    2
    76    54    56    1
    77    56   112    1
    78    56   113    1
    79    56   114    1
    80    57   115    1
    81    57   116    1
    82    57   117    1
    83    58   118    1
    84    58   119    1
    85    58   120    1
    86    59   121    1
    87    59   122    1
    88    59   123    1
    89    60    61    2
    90     1    47    1
    91     1    62    1
    92     2    63    1
    93     3    64    1
    94     4    65    1
    95     5     6    1
    96     7     8    2
    97     9    78    1
    98    15    79    1
    99    18    80    1
   100    18    81    1
   101    19    82    1
   102    19    83    1
   103    20    23    1
   104    21    84    1
   105    21    85    1
   106    22    86    1
   107    22    87    1
   108    27    45    1
   109    28    34    1
   110    32    58    1
   111    33    46    2
   112    36    51    1
   113    36    66    1
   114    37    52    1
   115    37    67    1
   116    38    53    1
   117    38    68    1
   118    42    48    1
   119    42    72    1
   120    43    44    2
   121    60    73    1
   122    61    74    1
   123    39    69    1
   124    39    57    1
   125    40    70    1
   126    40    50    1
   127    41    71    1
   128    41    49    1
