@<TRIPOS>MOLECULE
*****
 123 128 0 0 0
SMALL
GASTEIGER

@<TRIPOS>ATOM
     1 C         -2.593653   -2.652147   -2.05185 C.3        1 UNL1     0.0009
     2 C         -2.12869   -4.14799   -3.043464 C.2        1 UNL1     -0.0787
     3 C         -1.946458   -4.799591   -4.323407 C.2        1 UNL1     -0.0649
     4 C         -1.310296   -6.339077   -4.626127 C.2        1 UNL1     -0.0542
     5 C         -0.71942   -7.180009   -5.601205 C.2        1 UNL1     0.0115
     6 C         -0.395866   -7.314802   -7.114633 C.3        1 UNL1     -0.0348
     7 C         0.077884   -8.487324   -5.11931 C.2        1 UNL1     0.2441
     8 O         -0.39438   -9.614262   -5.178503 O.2        1 UNL1     -0.2702
     9 N         1.44627   -8.283978   -4.86967 N.am        1 UNL1     -0.2772
     10 C         1.642644   -7.883959   -3.567847 C.2        1 UNL1     0.1049
     11 C         1.473714   -6.597294   -3.322534 C.2        1 UNL1     0.0801
     12 C         1.04422   -8.452173   -1.206416 C.ar        1 UNL1     0.0753
     13 C         0.674604   -7.078057   -1.052152 C.ar        1 UNL1     0.0305
     14 C         1.001855   -6.079102   -2.067065 C.2        1 UNL1     0.0924
     15 N         1.343556   -5.565407   -4.173883 N.pl3        1 UNL1     -0.3170
     16 C         1.358923   -4.352567   -3.399909 C.3        1 UNL1     0.1275
     17 N         0.82788   -4.760665   -2.04744 N.2        1 UNL1     -0.2557
     18 C         2.820636   -3.972542   -3.183858 C.3        1 UNL1     0.0016
     19 C         3.49957   -3.860723   -4.539636 C.3        1 UNL1     0.0026
     20 N         2.806674   -2.850989   -5.327901 N.3        1 UNL1     -0.3018
     21 C         1.378617   -3.097989   -5.53769 C.3        1 UNL1     0.0026
     22 C         0.715686   -3.20219   -4.163077 C.3        1 UNL1     0.0016
     23 C         3.545049   -2.453873   -6.510164 C.3        1 UNL1     0.0012
     24 C         4.983913   -2.99058   -6.452108 C.3        1 UNL1     -0.0339
     25 C         5.187625   -4.160369   -7.428915 C.3        1 UNL1     -0.0615
     26 C         5.970293   -1.865668   -6.713659 C.3        1 UNL1     -0.0615
     27 C         0.836963   -9.37454   -0.183479 C.ar        1 UNL1     0.1347
     28 C         0.306949   -9.034236   1.048321 C.ar        1 UNL1     0.0342
     29 C         -0.094607   -7.686103   1.159914 C.ar        1 UNL1     0.1435
     30 C         0.073542   -6.758831   0.130782 C.ar        1 UNL1     0.0774
     31 O         -0.526946   -7.174329   2.333019 O.3        1 UNL1     -0.4436
     32 C         -0.380214   -5.753957   2.185079 C.3        1 UNL1     0.3143
     33 C         -0.394514   -5.507821   0.689946 C.2        1 UNL1     0.2504
     34 C         0.288138   -9.90765   2.271797 C.3        1 UNL1     -0.0327
     35 O         -1.562481   -5.145643   2.719355 O.2        1 UNL1     -0.4528
     36 C         -0.482186   -1.755119   4.04049 C.3        1 UNL1     0.0854
     37 C         0.224735   -0.568358   3.279319 C.3        1 UNL1     0.0236
     38 C         -0.536426   0.840348   3.36835 C.3        1 UNL1     0.1131
     39 C         -2.076152   0.924484   3.015596 C.3        1 UNL1     0.0200
     40 C         -2.682261   0.126383   1.682141 C.3        1 UNL1     0.0661
     41 C         -2.047876   0.193989   0.110329 C.3        1 UNL1     0.0091
     42 C         -2.016457   -1.073217   -1.215795 C.3        1 UNL1     0.0661
     43 C         1.737648   -8.844442   -2.458432 C.2        1 UNL1     0.2131
     44 O         2.434887   -9.837675   -2.558842 O.2        1 UNL1     -0.2851
     45 O         1.182841   -10.701328   -0.431354 O.3        1 UNL1     -0.5056
     46 O         -0.736509   -4.511205   0.09358 O.2        1 UNL1     -0.2836
     47 C         -4.134758   -2.465157   -2.048334 C.3        1 UNL1     -0.0566
     48 O         -2.491224   -0.145365   -2.27069 O.3        1 UNL1     -0.3909
     49 C         -0.666451   0.807081   0.167578 C.3        1 UNL1     -0.0577
     50 O         -3.024683   -1.205616   2.008099 O.3        1 UNL1     -0.3910
     51 O         -1.767192   -1.480771   4.551297 O.3        1 UNL1     -0.3753
     52 C         0.925125   -1.053306   1.968125 C.3        1 UNL1     -0.0564
     53 O         0.309426   2.007478   2.950416 O.3        1 UNL1     -0.4608
     54 C         0.921393   2.890872   3.800734 C.2        1 UNL1     0.3042
     55 O         0.896417   4.119767   3.745665 O.2        1 UNL1     -0.2512
     56 C         1.642665   2.227926   4.939585 C.3        1 UNL1     0.0332
     57 C         -2.891943   0.810999   4.386647 C.3        1 UNL1     -0.0567
     58 C         1.02069   -5.399236   2.735688 C.3        1 UNL1     0.0210
     59 C         -2.751546   -1.174582   3.564808 C.3        1 UNL1     0.0372
     60 C         -0.589026   -3.02273   3.267892 C.2        1 UNL1     -0.0208
     61 C         -1.615904   -3.860742   3.119559 C.2        1 UNL1     0.0882
     62 H         -2.343284   -3.20395   -1.137771 H        1 UNL1     0.0365
     63 H         -1.950992   -4.873274   -2.246686 H        1 UNL1     0.0576
     64 H         -2.063593   -4.256671   -5.263952 H        1 UNL1     0.0615
     65 H         -1.309513   -6.818573   -3.643495 H        1 UNL1     0.0622
     66 H         0.18226   -1.974016   4.888217 H        1 UNL1     0.0645
     67 H         1.129833   -0.367016   3.878334 H        1 UNL1     0.0362
     68 H         -0.475814   1.013912   4.45358 H        1 UNL1     0.0741
     69 H         -2.330351   1.955848   2.810461 H        1 UNL1     0.0359
     70 H         -3.654851   0.643924   1.575929 H        1 UNL1     0.0600
     71 H         -2.641145   1.033815   -0.301595 H        1 UNL1     0.0348
     72 H         -2.803892   -1.386916   -0.515184 H        1 UNL1     0.0602
     73 H         0.369964   -3.287737   2.897274 H        1 UNL1     0.0628
     74 H         -2.640921   -3.639044   3.418604 H        1 UNL1     0.1022
     75 H         -0.015058   -8.339124   -7.344382 H        1 UNL1     0.0279
     76 H         -1.234361   -7.217291   -7.800554 H        1 UNL1     0.0279
     77 H         0.456231   -6.692185   -7.42444 H        1 UNL1     0.0279
     78 H         1.797927   -7.544116   -5.473838 H        1 UNL1     0.1553
     79 H         1.623035   -5.599327   -5.137042 H        1 UNL1     0.1484
     80 H         2.866115   -3.024859   -2.633771 H        1 UNL1     0.0317
     81 H         3.331651   -4.718548   -2.565805 H        1 UNL1     0.0317
     82 H         3.521288   -4.826863   -5.065007 H        1 UNL1     0.0428
     83 H         4.541067   -3.590796   -4.362234 H        1 UNL1     0.0428
     84 H         0.865734   -2.286615   -6.063461 H        1 UNL1     0.0428
     85 H         1.204864   -3.978483   -6.171612 H        1 UNL1     0.0428
     86 H         -0.34046   -3.248939   -4.353759 H        1 UNL1     0.0317
     87 H         0.833557   -2.257874   -3.61767 H        1 UNL1     0.0317
     88 H         3.045464   -2.887277   -7.386446 H        1 UNL1     0.0429
     89 H         3.533878   -1.364003   -6.639906 H        1 UNL1     0.0429
     90 H         5.19485   -3.343617   -5.435701 H        1 UNL1     0.0308
     91 H         5.430444   -5.08509   -6.896908 H        1 UNL1     0.0233
     92 H         4.291676   -4.319189   -8.033613 H        1 UNL1     0.0233
     93 H         6.00528   -3.976226   -8.136282 H        1 UNL1     0.0233
     94 H         6.321292   -1.443143   -5.765973 H        1 UNL1     0.0233
     95 H         6.839981   -2.249489   -7.254293 H        1 UNL1     0.0233
     96 H         5.514636   -1.064076   -7.301704 H        1 UNL1     0.0233
     97 H         -0.718752   -10.057881   2.649732 H        1 UNL1     0.0280
     98 H         0.686304   -10.910715   2.070353 H        1 UNL1     0.0280
     99 H         0.890016   -9.440183   3.068234 H        1 UNL1     0.0280
     100 H         2.098274   -10.842822   -0.597437 H        1 UNL1     0.2922
     101 H         -4.622009   -3.430999   -1.916457 H        1 UNL1     0.0236
     102 H         -4.50448   -1.93709   -2.926647 H        1 UNL1     0.0236
     103 H         -4.476553   -1.860037   -1.192064 H        1 UNL1     0.0236
     104 H         -3.375481   0.175128   -2.005462 H        1 UNL1     0.2098
     105 H         -0.476821   1.55887   -0.594436 H        1 UNL1     0.0234
     106 H         -0.374805   1.181685   1.14867 H        1 UNL1     0.0234
     107 H         0.0   0.0   0.0 H        1 UNL1     0.0234
     108 H         -3.553156   -1.559007   1.266749 H        1 UNL1     0.2098
     109 H         1.969522   -1.349292   2.139411 H        1 UNL1     0.0234
     110 H         0.389876   -1.869324   1.470765 H        1 UNL1     0.0234
     111 H         0.961735   -0.258609   1.211116 H        1 UNL1     0.0234
     112 H         1.889963   1.195857   4.673081 H        1 UNL1     0.0342
     113 H         2.533762   2.779074   5.236274 H        1 UNL1     0.0342
     114 H         0.965571   2.199431   5.804396 H        1 UNL1     0.0342
     115 H         -2.527068   -0.015612   5.011762 H        1 UNL1     0.0234
     116 H         -2.867334   1.717794   4.994237 H        1 UNL1     0.0234
     117 H         -3.948138   0.522825   4.247537 H        1 UNL1     0.0234
     118 H         1.199179   -4.309705   2.7441 H        1 UNL1     0.0309
     119 H         1.202359   -5.799669   3.738111 H        1 UNL1     0.0309
     120 H         1.829865   -5.782859   2.104676 H        1 UNL1     0.0309
     121 H         -2.930032   -2.0798   2.985084 H        1 UNL1     0.0524
     122 H         -3.712816   -0.872283   4.012707 H        1 UNL1     0.0524
     123 H         -2.39861   -0.377685   2.91636 H        1 UNL1     0.0524
@<TRIPOS>BOND
     1     1     2    1
     2     1    42    1
     3     2     3    2
     4     3     4    1
     5     4     5    2
     6     5     7    1
     7     6    75    1
     8     6    76    1
     9     6    77    1
    10     7     9   am
    11     9    10    1
    12    10    11    2
    13    10    43    1
    14    11    14    1
    15    11    15    1
    16    12    13   ar
    17    12    27   ar
    18    12    43    1
    19    13    14    1
    20    13    30   ar
    21    14    17    2
    22    15    16    1
    23    16    17    1
    24    16    18    1
    25    16    22    1
    26    18    19    1
    27    19    20    1
    28    20    21    1
    29    21    22    1
    30    23    24    1
    31    23    88    1
    32    23    89    1
    33    24    25    1
    34    24    26    1
    35    24    90    1
    36    25    91    1
    37    25    92    1
    38    25    93    1
    39    26    94    1
    40    26    95    1
    41    26    96    1
    42    27    28   ar
    43    28    29   ar
    44    29    30   ar
    45    29    31    1
    46    30    33    1
    47    31    32    1
    48    32    33    1
    49    32    35    1
    50    34    97    1
    51    34    98    1
    52    34    99    1
    53    35    61    1
    54    36    37    1
    55    36    60    1
    56    37    38    1
    57    38    39    1
    58    39    40    1
    59    40    41    1
    60    41    42    1
    61    45   100    1
    62    47   101    1
    63    47   102    1
    64    47   103    1
    65    48   104    1
    66    49   105    1
    67    49   106    1
    68    49   107    1
    69    50   108    1
    70    51    59    1
    71    52   109    1
    72    52   110    1
    73    52   111    1
    74    53    54    1
    75    54    55    2
    76    54    56    1
    77    56   112    1
    78    56   113    1
    79    56   114    1
    80    57   115    1
    81    57   116    1
    82    57   117    1
    83    58   118    1
    84    58   119    1
    85    58   120    1
    86    59   121    1
    87    59   122    1
    88    59   123    1
    89    60    61    2
    90     1    47    1
    91     1    62    1
    92     2    63    1
    93     3    64    1
    94     4    65    1
    95     5     6    1
    96     7     8    2
    97     9    78    1
    98    15    79    1
    99    18    80    1
   100    18    81    1
   101    19    82    1
   102    19    83    1
   103    20    23    1
   104    21    84    1
   105    21    85    1
   106    22    86    1
   107    22    87    1
   108    27    45    1
   109    28    34    1
   110    32    58    1
   111    33    46    2
   112    36    51    1
   113    36    66    1
   114    37    52    1
   115    37    67    1
   116    38    53    1
   117    38    68    1
   118    42    48    1
   119    42    72    1
   120    43    44    2
   121    60    73    1
   122    61    74    1
   123    39    69    1
   124    39    57    1
   125    40    70    1
   126    40    50    1
   127    41    71    1
   128    41    49    1
