@<TRIPOS>MOLECULE
*****
 123 128 0 0 0
SMALL
GASTEIGER

@<TRIPOS>ATOM
     1 C         0.16112   -2.433689   -4.308707 C.3        1 UNL1     0.0009
     2 C         1.403897   -2.622492   -5.671387 C.2        1 UNL1     -0.0787
     3 C         1.796155   -2.421212   -7.050396 C.2        1 UNL1     -0.0649
     4 C         3.294658   -2.753044   -7.765051 C.2        1 UNL1     -0.0542
     5 C         4.145299   -2.471825   -8.862504 C.2        1 UNL1     0.0115
     6 C         4.216544   -1.78228   -10.252747 C.3        1 UNL1     -0.0348
     7 C         5.706692   -2.826001   -8.745874 C.2        1 UNL1     0.2441
     8 O         6.206834   -3.810494   -9.272332 O.2        1 UNL1     -0.2702
     9 N         6.506649   -1.796067   -8.221035 N.am        1 UNL1     -0.2772
     10 C         6.553044   -1.876264   -6.848178 C.2        1 UNL1     0.1049
     11 C         5.540261   -1.331506   -6.198769 C.2        1 UNL1     0.0801
     12 C         6.948433   -3.476894   -4.966959 C.ar        1 UNL1     0.0753
     13 C         5.72396   -2.995276   -4.403647 C.ar        1 UNL1     0.0305
     14 C         5.049235   -1.813737   -4.936342 C.2        1 UNL1     0.0924
     15 N         4.563935   -0.521988   -6.643735 N.pl3        1 UNL1     -0.3170
     16 C         3.811995   -0.072022   -5.50252 C.3        1 UNL1     0.1275
     17 N         3.9738   -1.174631   -4.484779 N.2        1 UNL1     -0.2557
     18 C         4.539491   1.141414   -4.931535 C.3        1 UNL1     0.0016
     19 C         4.691771   2.179406   -6.031977 C.3        1 UNL1     0.0026
     20 N         3.368074   2.543096   -6.518376 N.3        1 UNL1     -0.3018
     21 C         2.566757   1.430006   -7.031492 C.3        1 UNL1     0.0026
     22 C         2.42255   0.401531   -5.908399 C.3        1 UNL1     0.0016
     23 C         3.379175   3.730678   -7.349141 C.3        1 UNL1     0.0012
     24 C         4.818394   4.100126   -7.741458 C.3        1 UNL1     -0.0339
     25 C         4.922929   4.444902   -9.236201 C.3        1 UNL1     -0.0615
     26 C         5.320339   5.237512   -6.868999 C.3        1 UNL1     -0.0615
     27 C         7.648169   -4.528792   -4.380447 C.ar        1 UNL1     0.1347
     28 C         7.244684   -5.149425   -3.211659 C.ar        1 UNL1     0.0342
     29 C         6.011159   -4.691336   -2.702018 C.ar        1 UNL1     0.1435
     30 C         5.280882   -3.662921   -3.298909 C.ar        1 UNL1     0.0774
     31 O         5.537888   -5.119515   -1.511353 O.3        1 UNL1     -0.4436
     32 C         4.574135   -4.127664   -1.126277 C.3        1 UNL1     0.3143
     33 C         4.145728   -3.467767   -2.421351 C.2        1 UNL1     0.2504
     34 C         8.065857   -6.105665   -2.392281 C.3        1 UNL1     -0.0327
     35 O         3.430247   -4.821728   -0.613397 O.2        1 UNL1     -0.4528
     36 C         1.882195   -2.510442   1.969156 C.3        1 UNL1     0.0854
     37 C         1.362958   -1.031014   1.798251 C.3        1 UNL1     0.0236
     38 C         -0.157188   -0.791888   2.249603 C.3        1 UNL1     0.1131
     39 C         -1.297395   -1.742031   1.702403 C.3        1 UNL1     0.0200
     40 C         -1.330119   -2.183086   0.094039 C.3        1 UNL1     0.0661
     41 C         -1.209673   -1.127516   -1.228412 C.3        1 UNL1     0.0091
     42 C         -0.475265   -1.380955   -2.890284 C.3        1 UNL1     0.0661
     43 C         7.495145   -2.760366   -6.145922 C.2        1 UNL1     0.2131
     44 O         8.667545   -2.798553   -6.472659 O.2        1 UNL1     -0.2851
     45 O         8.807338   -4.967049   -5.017391 O.3        1 UNL1     -0.5056
     46 O         3.095292   -2.923222   -2.67808 O.2        1 UNL1     -0.2836
     47 C         -0.998152   -3.449883   -4.491514 C.3        1 UNL1     -0.0566
     48 O         -1.636962   -0.812288   -3.615675 O.3        1 UNL1     -0.3909
     49 C         -0.731129   0.219844   -0.73535 C.3        1 UNL1     -0.0577
     50 O         -0.532379   -3.328558   -0.127835 O.3        1 UNL1     -0.3910
     51 O         0.910285   -3.467016   2.326629 O.3        1 UNL1     -0.3753
     52 C         1.972526   -0.342922   0.533377 C.3        1 UNL1     -0.0564
     53 O         -0.514945   0.656651   2.411067 O.3        1 UNL1     -0.4608
     54 C         -1.277558   1.389246   1.539484 C.2        1 UNL1     0.3042
     55 O         -0.884535   2.208601   0.710009 O.2        1 UNL1     -0.2512
     56 C         -2.744529   1.07401   1.612517 C.3        1 UNL1     0.0332
     57 C         -1.536885   -2.886241   2.794009 C.3        1 UNL1     -0.0567
     58 C         5.333246   -3.091143   -0.265519 C.3        1 UNL1     0.0210
     59 C         0.171963   -3.158725   3.508028 C.3        1 UNL1     0.0372
     60 C         2.613627   -3.059753   0.795092 C.2        1 UNL1     -0.0208
     61 C         2.520218   -4.24821   0.197104 C.2        1 UNL1     0.0882
     62 H         0.876617   -2.896094   -3.618085 H        1 UNL1     0.0365
     63 H         2.179102   -3.198365   -5.161585 H        1 UNL1     0.0576
     64 H         1.171378   -1.857479   -7.746791 H        1 UNL1     0.0615
     65 H         3.802584   -3.379305   -7.026612 H        1 UNL1     0.0622
     66 H         2.618841   -2.452164   2.782791 H        1 UNL1     0.0645
     67 H         1.912647   -0.463249   2.568994 H        1 UNL1     0.0362
     68 H         -0.070161   -1.027715   3.321207 H        1 UNL1     0.0741
     69 H         -2.252349   -1.250692   1.83301 H        1 UNL1     0.0359
     70 H         -2.370917   -2.55202   0.018624 H        1 UNL1     0.0600
     71 H         -2.282922   -0.923146   -1.41097 H        1 UNL1     0.0348
     72 H         -0.656904   -2.385973   -2.482533 H        1 UNL1     0.0602
     73 H         3.384669   -2.384927   0.516971 H        1 UNL1     0.0628
     74 H         1.725524   -4.971427   0.383264 H        1 UNL1     0.1022
     75 H         3.415659   -1.010017   -10.348803 H        1 UNL1     0.0279
     76 H         5.118172   -1.212508   -10.46604 H        1 UNL1     0.0279
     77 H         3.961774   -2.462691   -11.07848 H        1 UNL1     0.0279
     78 H         6.103077   -0.893129   -8.461679 H        1 UNL1     0.1553
     79 H         4.620236   0.000934   -7.49832 H        1 UNL1     0.1484
     80 H         3.965424   1.536669   -4.084783 H        1 UNL1     0.0317
     81 H         5.522561   0.859503   -4.539424 H        1 UNL1     0.0317
     82 H         5.32789   1.81367   -6.85143 H        1 UNL1     0.0428
     83 H         5.214497   3.03525   -5.603798 H        1 UNL1     0.0428
     84 H         1.549458   1.716409   -7.315897 H        1 UNL1     0.0428
     85 H         2.993168   1.010033   -7.952966 H        1 UNL1     0.0428
     86 H         1.724953   -0.329486   -6.273035 H        1 UNL1     0.0317
     87 H         1.898261   0.849284   -5.055325 H        1 UNL1     0.0317
     88 H         2.812544   3.512877   -8.263901 H        1 UNL1     0.0429
     89 H         2.876489   4.570064   -6.851632 H        1 UNL1     0.0429
     90 H         5.477361   3.249062   -7.532497 H        1 UNL1     0.0308
     91 H         3.989716   4.87569   -9.611218 H        1 UNL1     0.0233
     92 H         5.739661   5.148381   -9.414175 H        1 UNL1     0.0233
     93 H         5.137669   3.564434   -9.853855 H        1 UNL1     0.0233
     94 H         6.289527   5.594201   -7.234081 H        1 UNL1     0.0233
     95 H         4.617529   6.074584   -6.905472 H        1 UNL1     0.0233
     96 H         5.438178   4.920599   -5.828976 H        1 UNL1     0.0233
     97 H         7.457364   -6.66579   -1.688559 H        1 UNL1     0.0280
     98 H         8.572031   -6.855012   -3.014794 H        1 UNL1     0.0280
     99 H         8.825523   -5.545549   -1.82283 H        1 UNL1     0.0280
     100 H         9.142071   -4.37766   -5.670229 H        1 UNL1     0.2922
     101 H         -0.593639   -4.458677   -4.57126 H        1 UNL1     0.0236
     102 H         -1.654878   -3.205449   -5.325749 H        1 UNL1     0.0236
     103 H         -1.662135   -3.483357   -3.611628 H        1 UNL1     0.0236
     104 H         -2.274729   -1.537351   -3.765699 H        1 UNL1     0.2098
     105 H         -0.261355   0.836138   -1.497784 H        1 UNL1     0.0234
     106 H         -1.478141   0.796938   -0.1905 H        1 UNL1     0.0234
     107 H         0.0   0.0   0.0 H        1 UNL1     0.0234
     108 H         -0.32521   -3.357459   -1.081782 H        1 UNL1     0.2098
     109 H         2.313583   0.681029   0.740542 H        1 UNL1     0.0234
     110 H         2.789216   -0.916999   0.082605 H        1 UNL1     0.0234
     111 H         1.233529   -0.252463   -0.273869 H        1 UNL1     0.0234
     112 H         -3.29133   1.675364   0.8799 H        1 UNL1     0.0342
     113 H         -2.942754   0.012415   1.472634 H        1 UNL1     0.0342
     114 H         -3.105638   1.351121   2.612505 H        1 UNL1     0.0342
     115 H         -2.328505   -3.583811   2.487542 H        1 UNL1     0.0234
     116 H         -0.64733   -3.477691   3.019685 H        1 UNL1     0.0234
     117 H         -1.944351   -2.506827   3.746877 H        1 UNL1     0.0234
     118 H         6.425899   -3.150908   -0.412296 H        1 UNL1     0.0309
     119 H         5.003902   -2.062287   -0.442133 H        1 UNL1     0.0309
     120 H         5.212698   -3.267915   0.808876 H        1 UNL1     0.0309
     121 H         -0.167943   -4.09987   3.939383 H        1 UNL1     0.0524
     122 H         0.789731   -2.649817   4.266588 H        1 UNL1     0.0524
     123 H         -0.679009   -2.528483   3.265676 H        1 UNL1     0.0524
@<TRIPOS>BOND
     1     1     2    1
     2     1    42    1
     3     2     3    2
     4     3     4    1
     5     4     5    2
     6     5     7    1
     7     6    75    1
     8     6    76    1
     9     6    77    1
    10     7     9   am
    11     9    10    1
    12    10    11    2
    13    10    43    1
    14    11    14    1
    15    11    15    1
    16    12    13   ar
    17    12    27   ar
    18    12    43    1
    19    13    14    1
    20    13    30   ar
    21    14    17    2
    22    15    16    1
    23    16    17    1
    24    16    18    1
    25    16    22    1
    26    18    19    1
    27    19    20    1
    28    20    21    1
    29    21    22    1
    30    23    24    1
    31    23    88    1
    32    23    89    1
    33    24    25    1
    34    24    26    1
    35    24    90    1
    36    25    91    1
    37    25    92    1
    38    25    93    1
    39    26    94    1
    40    26    95    1
    41    26    96    1
    42    27    28   ar
    43    28    29   ar
    44    29    30   ar
    45    29    31    1
    46    30    33    1
    47    31    32    1
    48    32    33    1
    49    32    35    1
    50    34    97    1
    51    34    98    1
    52    34    99    1
    53    35    61    1
    54    36    37    1
    55    36    60    1
    56    37    38    1
    57    38    39    1
    58    39    40    1
    59    40    41    1
    60    41    42    1
    61    45   100    1
    62    47   101    1
    63    47   102    1
    64    47   103    1
    65    48   104    1
    66    49   105    1
    67    49   106    1
    68    49   107    1
    69    50   108    1
    70    51    59    1
    71    52   109    1
    72    52   110    1
    73    52   111    1
    74    53    54    1
    75    54    55    2
    76    54    56    1
    77    56   112    1
    78    56   113    1
    79    56   114    1
    80    57   115    1
    81    57   116    1
    82    57   117    1
    83    58   118    1
    84    58   119    1
    85    58   120    1
    86    59   121    1
    87    59   122    1
    88    59   123    1
    89    60    61    2
    90     1    47    1
    91     1    62    1
    92     2    63    1
    93     3    64    1
    94     4    65    1
    95     5     6    1
    96     7     8    2
    97     9    78    1
    98    15    79    1
    99    18    80    1
   100    18    81    1
   101    19    82    1
   102    19    83    1
   103    20    23    1
   104    21    84    1
   105    21    85    1
   106    22    86    1
   107    22    87    1
   108    27    45    1
   109    28    34    1
   110    32    58    1
   111    33    46    2
   112    36    51    1
   113    36    66    1
   114    37    52    1
   115    37    67    1
   116    38    53    1
   117    38    68    1
   118    42    48    1
   119    42    72    1
   120    43    44    2
   121    60    73    1
   122    61    74    1
   123    39    69    1
   124    39    57    1
   125    40    70    1
   126    40    50    1
   127    41    71    1
   128    41    49    1
