@<TRIPOS>MOLECULE
*****
 123 128 0 0 0
SMALL
GASTEIGER

@<TRIPOS>ATOM
     1 C         5.172537   1.735461   0.481985 C.3        1 UNL1     0.0009
     2 C         6.609963   2.537322   -0.371163 C.2        1 UNL1     -0.0787
     3 C         7.890501   2.435399   -1.038906 C.2        1 UNL1     -0.0649
     4 C         8.769972   3.667796   -1.796589 C.2        1 UNL1     -0.0542
     5 C         9.789246   3.957243   -2.737004 C.2        1 UNL1     0.0115
     6 C         10.914395   3.328359   -3.604107 C.3        1 UNL1     -0.0348
     7 C         9.887505   5.439911   -3.344482 C.2        1 UNL1     0.2441
     8 O         10.714155   6.259595   -2.968593 O.2        1 UNL1     -0.2702
     9 N         9.135939   5.648209   -4.51406 N.am        1 UNL1     -0.2772
     10 C         7.854754   6.038435   -4.198448 C.2        1 UNL1     0.1049
     11 C         7.006889   5.069411   -3.904612 C.2        1 UNL1     0.0801
     12 C         6.562873   7.64927   -2.786503 C.ar        1 UNL1     0.0753
     13 C         5.801576   6.523601   -2.337165 C.ar        1 UNL1     0.0305
     14 C         5.91403   5.217243   -2.982017 C.2        1 UNL1     0.0924
     15 N         7.125757   3.740028   -4.063164 N.pl3        1 UNL1     -0.3170
     16 C         5.854835   3.144373   -3.746606 C.3        1 UNL1     0.1275
     17 N         5.222534   4.101816   -2.766187 N.2        1 UNL1     -0.2557
     18 C         5.000104   3.204994   -5.00893 C.3        1 UNL1     0.0016
     19 C         5.751358   2.518299   -6.13838 C.3        1 UNL1     0.0026
     20 N         6.018498   1.139703   -5.752196 N.3        1 UNL1     -0.3018
     21 C         6.783433   0.977981   -4.514016 C.3        1 UNL1     0.0026
     22 C         6.008319   1.671163   -3.392146 C.3        1 UNL1     0.0016
     23 C         6.459053   0.31839   -6.86215 C.3        1 UNL1     0.0012
     24 C         5.30137   0.071416   -7.842216 C.3        1 UNL1     -0.0339
     25 C         5.32768   1.073883   -9.007731 C.3        1 UNL1     -0.0615
     26 C         5.336188   -1.363662   -8.33832 C.3        1 UNL1     -0.0615
     27 C         6.362421   8.917794   -2.247259 C.ar        1 UNL1     0.1347
     28 C         5.405628   9.190393   -1.28586 C.ar        1 UNL1     0.0342
     29 C         4.701831   8.058046   -0.823665 C.ar        1 UNL1     0.1435
     30 C         4.917083   6.775168   -1.32875 C.ar        1 UNL1     0.0774
     31 O         3.662524   8.174821   0.031444 O.3        1 UNL1     -0.4436
     32 C         2.937378   6.943826   -0.108863 C.3        1 UNL1     0.3143
     33 C         3.947196   5.947765   -0.642099 C.2        1 UNL1     0.2504
     34 C         4.963099   10.557911   -0.845222 C.3        1 UNL1     -0.0327
     35 O         2.577727   6.508805   1.208202 O.2        1 UNL1     -0.4528
     36 C         -0.671029   4.584939   0.817802 C.3        1 UNL1     0.0854
     37 C         -0.981105   3.324665   -0.078348 C.3        1 UNL1     0.0236
     38 C         -1.583695   2.065643   0.711268 C.3        1 UNL1     0.1131
     39 C         -0.857225   1.533524   2.01179 C.3        1 UNL1     0.0200
     40 C         0.803644   1.383631   2.050345 C.3        1 UNL1     0.0661
     41 C         1.759088   0.611629   0.880409 C.3        1 UNL1     0.0091
     42 C         3.466704   0.969377   0.313431 C.3        1 UNL1     0.0661
     43 C         7.510544   7.438444   -3.908881 C.2        1 UNL1     0.2131
     44 O         7.91162   8.335065   -4.628565 O.2        1 UNL1     -0.2851
     45 O         7.176662   9.950505   -2.70765 O.3        1 UNL1     -0.5056
     46 O         3.960231   4.744266   -0.51067 O.2        1 UNL1     -0.2836
     47 C         5.570105   1.305748   1.919784 C.3        1 UNL1     -0.0566
     48 O         3.911686   -0.442858   0.395284 O.3        1 UNL1     -0.3909
     49 C         0.922276   0.38054   -0.358073 C.3        1 UNL1     -0.0577
     50 O         1.407683   2.60013   2.441485 O.3        1 UNL1     -0.3910
     51 O         -0.793352   4.396373   2.209532 O.3        1 UNL1     -0.3753
     52 C         0.061048   3.160797   -1.232477 C.3        1 UNL1     -0.0564
     53 O         -2.190494   1.027743   -0.187001 O.3        1 UNL1     -0.4608
     54 C         -2.415702   -0.281468   0.149416 C.2        1 UNL1     0.3042
     55 O         -1.846749   -1.276198   -0.298516 O.2        1 UNL1     -0.2512
     56 C         -3.443975   -0.456272   1.230532 C.3        1 UNL1     0.0332
     57 C         -1.574435   2.205125   3.273827 C.3        1 UNL1     -0.0567
     58 C         1.861067   7.191136   -1.191417 C.3        1 UNL1     0.0210
     59 C         -1.133183   5.570329   2.945879 C.3        1 UNL1     0.0372
     60 C         0.659241   5.21039   0.584665 C.2        1 UNL1     -0.0208
     61 C         1.574735   5.643708   1.452336 C.2        1 UNL1     0.0882
     62 H         4.699353   2.720933   0.569466 H        1 UNL1     0.0365
     63 H         6.346664   3.591879   -0.266027 H        1 UNL1     0.0576
     64 H         8.345247   1.467222   -1.260146 H        1 UNL1     0.0615
     65 H         8.285868   4.584669   -1.449501 H        1 UNL1     0.0622
     66 H         -1.414215   5.33325   0.508366 H        1 UNL1     0.0645
     67 H         -1.846831   3.635962   -0.688406 H        1 UNL1     0.0362
     68 H         -2.529037   2.505212   1.064298 H        1 UNL1     0.0741
     69 H         -1.19109   0.523414   2.208311 H        1 UNL1     0.0359
     70 H         0.915118   0.723509   2.931749 H        1 UNL1     0.0600
     71 H         1.800677   -0.409405   1.307864 H        1 UNL1     0.0348
     72 H         3.363709   1.458417   1.292996 H        1 UNL1     0.0602
     73 H         0.775963   5.406738   -0.452191 H        1 UNL1     0.0628
     74 H         1.558382   5.433701   2.52232 H        1 UNL1     0.1022
     75 H         10.956214   2.223054   -3.450528 H        1 UNL1     0.0279
     76 H         10.799219   3.410832   -4.682533 H        1 UNL1     0.0279
     77 H         11.920801   3.630599   -3.279303 H        1 UNL1     0.0279
     78 H         9.070789   4.778128   -5.038265 H        1 UNL1     0.1553
     79 H         7.788887   3.309933   -4.681395 H        1 UNL1     0.1484
     80 H         4.037851   2.716706   -4.812943 H        1 UNL1     0.0317
     81 H         4.775785   4.242186   -5.28016 H        1 UNL1     0.0317
     82 H         6.683011   3.047004   -6.388192 H        1 UNL1     0.0428
     83 H         5.124896   2.57458   -7.029126 H        1 UNL1     0.0428
     84 H         6.901509   -0.065107   -4.204442 H        1 UNL1     0.0428
     85 H         7.81432   1.343238   -4.619729 H        1 UNL1     0.0428
     86 H         6.525565   1.419959   -2.484764 H        1 UNL1     0.0317
     87 H         5.027825   1.196181   -3.26518 H        1 UNL1     0.0317
     88 H         7.255678   0.857784   -7.391053 H        1 UNL1     0.0429
     89 H         6.889728   -0.628318   -6.511385 H        1 UNL1     0.0429
     90 H         4.349664   0.18094   -7.308856 H        1 UNL1     0.0308
     91 H         6.275588   1.026164   -9.55206 H        1 UNL1     0.0233
     92 H         4.505756   0.881546   -9.701314 H        1 UNL1     0.0233
     93 H         5.206609   2.110274   -8.669987 H        1 UNL1     0.0233
     94 H         4.638203   -1.491885   -9.172714 H        1 UNL1     0.0233
     95 H         6.339327   -1.610789   -8.696932 H        1 UNL1     0.0233
     96 H         5.061257   -2.06632   -7.546706 H        1 UNL1     0.0233
     97 H         4.170843   10.510648   -0.104056 H        1 UNL1     0.0280
     98 H         5.778114   11.12608   -0.378115 H        1 UNL1     0.0280
     99 H         4.589486   11.122925   -1.714858 H        1 UNL1     0.0280
     100 H         6.711076   10.701895   -3.030551 H        1 UNL1     0.2922
     101 H         4.706981   0.874674   2.426586 H        1 UNL1     0.0236
     102 H         6.023952   2.110237   2.497542 H        1 UNL1     0.0236
     103 H         6.324236   0.501089   1.917915 H        1 UNL1     0.0236
     104 H         4.332315   -0.569447   1.26822 H        1 UNL1     0.2098
     105 H         0.711058   1.279597   -0.931567 H        1 UNL1     0.0234
     106 H         1.288514   -0.408831   -1.014343 H        1 UNL1     0.0234
     107 H         0.0   -0.0   0.0 H        1 UNL1     0.0234
     108 H         1.209732   3.258501   1.747849 H        1 UNL1     0.2098
     109 H         1.086202   3.044843   -0.853893 H        1 UNL1     0.0234
     110 H         -0.174683   2.333918   -1.911039 H        1 UNL1     0.0234
     111 H         0.083494   4.043173   -1.885818 H        1 UNL1     0.0234
     112 H         -3.571751   -1.51976   1.454168 H        1 UNL1     0.0342
     113 H         -3.192493   0.104547   2.129465 H        1 UNL1     0.0342
     114 H         -4.403436   -0.073102   0.856662 H        1 UNL1     0.0342
     115 H         -2.639213   1.93953   3.32764 H        1 UNL1     0.0234
     116 H         -1.12201   1.94395   4.232549 H        1 UNL1     0.0234
     117 H         -1.632106   3.30554   3.21298 H        1 UNL1     0.0234
     118 H         0.961954   7.680651   -0.777924 H        1 UNL1     0.0309
     119 H         2.230596   7.777654   -2.038559 H        1 UNL1     0.0309
     120 H         1.46935   6.259956   -1.615172 H        1 UNL1     0.0309
     121 H         -0.327277   6.290688   2.808197 H        1 UNL1     0.0524
     122 H         -2.062712   6.038412   2.58131 H        1 UNL1     0.0524
     123 H         -1.247769   5.332952   3.999737 H        1 UNL1     0.0524
@<TRIPOS>BOND
     1     1     2    1
     2     1    42    1
     3     2     3    2
     4     3     4    1
     5     4     5    2
     6     5     7    1
     7     6    75    1
     8     6    76    1
     9     6    77    1
    10     7     9   am
    11     9    10    1
    12    10    11    2
    13    10    43    1
    14    11    14    1
    15    11    15    1
    16    12    13   ar
    17    12    27   ar
    18    12    43    1
    19    13    14    1
    20    13    30   ar
    21    14    17    2
    22    15    16    1
    23    16    17    1
    24    16    18    1
    25    16    22    1
    26    18    19    1
    27    19    20    1
    28    20    21    1
    29    21    22    1
    30    23    24    1
    31    23    88    1
    32    23    89    1
    33    24    25    1
    34    24    26    1
    35    24    90    1
    36    25    91    1
    37    25    92    1
    38    25    93    1
    39    26    94    1
    40    26    95    1
    41    26    96    1
    42    27    28   ar
    43    28    29   ar
    44    29    30   ar
    45    29    31    1
    46    30    33    1
    47    31    32    1
    48    32    33    1
    49    32    35    1
    50    34    97    1
    51    34    98    1
    52    34    99    1
    53    35    61    1
    54    36    37    1
    55    36    60    1
    56    37    38    1
    57    38    39    1
    58    39    40    1
    59    40    41    1
    60    41    42    1
    61    45   100    1
    62    47   101    1
    63    47   102    1
    64    47   103    1
    65    48   104    1
    66    49   105    1
    67    49   106    1
    68    49   107    1
    69    50   108    1
    70    51    59    1
    71    52   109    1
    72    52   110    1
    73    52   111    1
    74    53    54    1
    75    54    55    2
    76    54    56    1
    77    56   112    1
    78    56   113    1
    79    56   114    1
    80    57   115    1
    81    57   116    1
    82    57   117    1
    83    58   118    1
    84    58   119    1
    85    58   120    1
    86    59   121    1
    87    59   122    1
    88    59   123    1
    89    60    61    2
    90     1    47    1
    91     1    62    1
    92     2    63    1
    93     3    64    1
    94     4    65    1
    95     5     6    1
    96     7     8    2
    97     9    78    1
    98    15    79    1
    99    18    80    1
   100    18    81    1
   101    19    82    1
   102    19    83    1
   103    20    23    1
   104    21    84    1
   105    21    85    1
   106    22    86    1
   107    22    87    1
   108    27    45    1
   109    28    34    1
   110    32    58    1
   111    33    46    2
   112    36    51    1
   113    36    66    1
   114    37    52    1
   115    37    67    1
   116    38    53    1
   117    38    68    1
   118    42    48    1
   119    42    72    1
   120    43    44    2
   121    60    73    1
   122    61    74    1
   123    39    69    1
   124    39    57    1
   125    40    70    1
   126    40    50    1
   127    41    71    1
   128    41    49    1
