@<TRIPOS>MOLECULE
*****
 123 128 0 0 0
SMALL
GASTEIGER

@<TRIPOS>ATOM
     1 C         5.145639   1.796124   0.543703 C.3        1 UNL1     0.0009
     2 C         6.582147   2.618789   -0.290985 C.2        1 UNL1     -0.0787
     3 C         7.870825   2.535094   -0.945468 C.2        1 UNL1     -0.0649
     4 C         8.743199   3.781108   -1.688953 C.2        1 UNL1     -0.0542
     5 C         9.76877   4.08668   -2.617344 C.2        1 UNL1     0.0115
     6 C         10.910604   3.474985   -3.47488 C.3        1 UNL1     -0.0348
     7 C         9.855397   5.572863   -3.217963 C.2        1 UNL1     0.2441
     8 O         10.667985   6.400995   -2.830117 O.2        1 UNL1     -0.2702
     9 N         9.113771   5.776735   -4.394644 N.am        1 UNL1     -0.2772
     10 C         7.824663   6.150118   -4.091153 C.2        1 UNL1     0.1049
     11 C         6.985594   5.169705   -3.810124 C.2        1 UNL1     0.0801
     12 C         6.4984   7.739468   -2.686757 C.ar        1 UNL1     0.0753
     13 C         5.746149   6.602848   -2.249926 C.ar        1 UNL1     0.0305
     14 C         5.881314   5.300556   -2.898631 C.2        1 UNL1     0.0924
     15 N         7.122305   3.842511   -3.972581 N.pl3        1 UNL1     -0.3170
     16 C         5.85545   3.230214   -3.671875 C.3        1 UNL1     0.1275
     17 N         5.201201   4.175963   -2.694511 N.2        1 UNL1     -0.2557
     18 C         5.013451   3.285542   -4.942968 C.3        1 UNL1     0.0016
     19 C         5.784918   2.612561   -6.067034 C.3        1 UNL1     0.0026
     20 N         6.064717   1.235764   -5.683405 N.3        1 UNL1     -0.3018
     21 C         6.818417   1.078352   -4.437802 C.3        1 UNL1     0.0026
     22 C         6.023094   1.75756   -3.321544 C.3        1 UNL1     0.0016
     23 C         6.526959   0.424329   -6.791804 C.3        1 UNL1     0.0012
     24 C         5.382804   0.167276   -7.785077 C.3        1 UNL1     -0.0339
     25 C         5.46024   1.118538   -8.990548 C.3        1 UNL1     -0.0615
     26 C         5.387866   -1.287899   -8.220071 C.3        1 UNL1     -0.0615
     27 C         6.276826   9.003287   -2.144738 C.ar        1 UNL1     0.1347
     28 C         5.306666   9.260388   -1.19251 C.ar        1 UNL1     0.0342
     29 C         4.611852   8.117737   -0.742238 C.ar        1 UNL1     0.1435
     30 C         4.848037   6.839607   -1.249999 C.ar        1 UNL1     0.0774
     31 O         3.56221   8.218454   0.102223 O.3        1 UNL1     -0.4436
     32 C         2.853626   6.979328   -0.05058 C.3        1 UNL1     0.3143
     33 C         3.88108   5.997743   -0.576926 C.2        1 UNL1     0.2504
     34 C         4.842885   10.620653   -0.751278 C.3        1 UNL1     -0.0327
     35 O         2.485379   6.534679   1.260883 O.2        1 UNL1     -0.4528
     36 C         -0.735405   4.573133   0.828476 C.3        1 UNL1     0.0854
     37 C         -1.020616   3.312807   -0.075822 C.3        1 UNL1     0.0236
     38 C         -1.61616   2.043401   0.702432 C.3        1 UNL1     0.1131
     39 C         -0.89707   1.514905   2.008522 C.3        1 UNL1     0.0200
     40 C         0.764999   1.385015   2.064147 C.3        1 UNL1     0.0661
     41 C         1.742097   0.629374   0.901436 C.3        1 UNL1     0.0091
     42 C         3.451137   1.010088   0.354041 C.3        1 UNL1     0.0661
     43 C         7.460392   7.544671   -3.79981 C.2        1 UNL1     0.2131
     44 O         7.858118   8.448981   -4.511691 O.2        1 UNL1     -0.2851
     45 O         7.083263   10.047643   -2.59242 O.3        1 UNL1     -0.5056
     46 O         3.907372   4.793972   -0.450055 O.2        1 UNL1     -0.2836
     47 C         5.53317   1.365482   1.983963 C.3        1 UNL1     -0.0566
     48 O         3.912384   -0.396963   0.435119 O.3        1 UNL1     -0.3909
     49 C         0.921313   0.393137   -0.346763 C.3        1 UNL1     -0.0577
     50 O         1.350013   2.607168   2.466423 O.3        1 UNL1     -0.3910
     51 O         -0.870146   4.377499   2.218081 O.3        1 UNL1     -0.3753
     52 C         0.035609   3.166239   -1.219437 C.3        1 UNL1     -0.0564
     53 O         -2.20074   1.001841   -0.206273 O.3        1 UNL1     -0.4608
     54 C         -2.425715   -0.308241   0.126896 C.2        1 UNL1     0.3042
     55 O         -1.842207   -1.300297   -0.308054 O.2        1 UNL1     -0.2512
     56 C         -3.475155   -0.487571   1.186722 C.3        1 UNL1     0.0332
     57 C         -1.635718   2.172672   3.265469 C.3        1 UNL1     -0.0567
     58 C         1.785902   7.217918   -1.143544 C.3        1 UNL1     0.0210
     59 C         -1.201189   5.550921   2.959267 C.3        1 UNL1     0.0372
     60 C         0.589546   5.215608   0.611933 C.2        1 UNL1     -0.0208
     61 C         1.490464   5.656505   1.490968 C.2        1 UNL1     0.0882
     62 H         4.659595   2.775423   0.629988 H        1 UNL1     0.0365
     63 H         6.304932   3.669642   -0.184546 H        1 UNL1     0.0576
     64 H         8.339638   1.573403   -1.165632 H        1 UNL1     0.0615
     65 H         8.244325   4.690637   -1.343462 H        1 UNL1     0.0622
     66 H         -1.484329   5.313614   0.514074 H        1 UNL1     0.0645
     67 H         -1.883563   3.616033   -0.693832 H        1 UNL1     0.0362
     68 H         -2.570465   2.470047   1.047103 H        1 UNL1     0.0741
     69 H         -1.220676   0.500037   2.197546 H        1 UNL1     0.0359
     70 H         0.875166   0.722753   2.944108 H        1 UNL1     0.0600
     71 H         1.791585   -0.392792   1.325328 H        1 UNL1     0.0348
     72 H         3.331835   1.493897   1.334353 H        1 UNL1     0.0602
     73 H         0.714836   5.417529   -0.422852 H        1 UNL1     0.0628
     74 H         1.465345   5.44201   2.559892 H        1 UNL1     0.1022
     75 H         10.945864   2.366167   -3.347156 H        1 UNL1     0.0279
     76 H         10.819061   3.583785   -4.553236 H        1 UNL1     0.0279
     77 H         11.910613   3.765861   -3.121223 H        1 UNL1     0.0279
     78 H         9.064768   4.908043   -4.922897 H        1 UNL1     0.1553
     79 H         7.797127   3.422982   -4.585397 H        1 UNL1     0.1484
     80 H         4.055192   2.784833   -4.759125 H        1 UNL1     0.0317
     81 H         4.779407   4.321019   -5.212525 H        1 UNL1     0.0317
     82 H         6.712658   3.153529   -6.304866 H        1 UNL1     0.0428
     83 H         5.167279   2.664823   -6.964164 H        1 UNL1     0.0428
     84 H         6.945899   0.035535   -4.131057 H        1 UNL1     0.0428
     85 H         7.845844   1.456509   -4.531126 H        1 UNL1     0.0428
     86 H         6.533728   1.508999   -2.4097 H        1 UNL1     0.0317
     87 H         5.047166   1.270212   -3.206861 H        1 UNL1     0.0317
     88 H         7.322512   0.975471   -7.310102 H        1 UNL1     0.0429
     89 H         6.965389   -0.51849   -6.44017 H        1 UNL1     0.0429
     90 H         4.423972   0.324701   -7.277069 H        1 UNL1     0.0308
     91 H         6.42083   1.029157   -9.506667 H        1 UNL1     0.0233
     92 H         4.652879   0.912989   -9.69732 H        1 UNL1     0.0233
     93 H         5.351877   2.170532   -8.700029 H        1 UNL1     0.0233
     94 H         4.704677   -1.432208   -9.064029 H        1 UNL1     0.0233
     95 H         6.391137   -1.577187   -8.54522 H        1 UNL1     0.0233
     96 H         5.076272   -1.94873   -7.406327 H        1 UNL1     0.0233
     97 H         4.037231   10.560899   -0.025619 H        1 UNL1     0.0280
     98 H         5.643472   11.193248   -0.265015 H        1 UNL1     0.0280
     99 H         4.480437   11.188056   -1.624078 H        1 UNL1     0.0280
     100 H         6.612003   10.795403   -2.915515 H        1 UNL1     0.2922
     101 H         4.666752   0.933305   2.484163 H        1 UNL1     0.0236
     102 H         5.982214   2.169824   2.565664 H        1 UNL1     0.0236
     103 H         6.287922   0.561408   1.986842 H        1 UNL1     0.0236
     104 H         4.319876   -0.523586   1.314259 H        1 UNL1     0.2098
     105 H         0.705249   1.291866   -0.918964 H        1 UNL1     0.0234
     106 H         1.304057   -0.389086   -1.002172 H        1 UNL1     0.0234
     107 H         0.0   -0.0   0.0 H        1 UNL1     0.0234
     108 H         1.166558   3.261383   1.764914 H        1 UNL1     0.2098
     109 H         1.059369   3.073612   -0.830787 H        1 UNL1     0.0234
     110 H         -0.176172   2.331726   -1.896549 H        1 UNL1     0.0234
     111 H         0.045554   4.046157   -1.876392 H        1 UNL1     0.0234
     112 H         -3.590499   -1.550368   1.420184 H        1 UNL1     0.0342
     113 H         -3.253282   0.087774   2.084271 H        1 UNL1     0.0342
     114 H         -4.432075   -0.124813   0.786879 H        1 UNL1     0.0342
     115 H         -2.703224   1.914112   3.293132 H        1 UNL1     0.0234
     116 H         -1.205232   1.893784   4.229291 H        1 UNL1     0.0234
     117 H         -1.684384   3.274271   3.220175 H        1 UNL1     0.0234
     118 H         0.875959   7.693407   -0.737439 H        1 UNL1     0.0309
     119 H         2.156762   7.813572   -1.983699 H        1 UNL1     0.0309
     120 H         1.41117   6.283819   -1.576141 H        1 UNL1     0.0309
     121 H         -0.368836   6.247522   2.862872 H        1 UNL1     0.0524
     122 H         -2.101417   6.053098   2.567546 H        1 UNL1     0.0524
     123 H         -1.362751   5.302252   4.004329 H        1 UNL1     0.0524
@<TRIPOS>BOND
     1     1     2    1
     2     1    42    1
     3     2     3    2
     4     3     4    1
     5     4     5    2
     6     5     7    1
     7     6    75    1
     8     6    76    1
     9     6    77    1
    10     7     9   am
    11     9    10    1
    12    10    11    2
    13    10    43    1
    14    11    14    1
    15    11    15    1
    16    12    13   ar
    17    12    27   ar
    18    12    43    1
    19    13    14    1
    20    13    30   ar
    21    14    17    2
    22    15    16    1
    23    16    17    1
    24    16    18    1
    25    16    22    1
    26    18    19    1
    27    19    20    1
    28    20    21    1
    29    21    22    1
    30    23    24    1
    31    23    88    1
    32    23    89    1
    33    24    25    1
    34    24    26    1
    35    24    90    1
    36    25    91    1
    37    25    92    1
    38    25    93    1
    39    26    94    1
    40    26    95    1
    41    26    96    1
    42    27    28   ar
    43    28    29   ar
    44    29    30   ar
    45    29    31    1
    46    30    33    1
    47    31    32    1
    48    32    33    1
    49    32    35    1
    50    34    97    1
    51    34    98    1
    52    34    99    1
    53    35    61    1
    54    36    37    1
    55    36    60    1
    56    37    38    1
    57    38    39    1
    58    39    40    1
    59    40    41    1
    60    41    42    1
    61    45   100    1
    62    47   101    1
    63    47   102    1
    64    47   103    1
    65    48   104    1
    66    49   105    1
    67    49   106    1
    68    49   107    1
    69    50   108    1
    70    51    59    1
    71    52   109    1
    72    52   110    1
    73    52   111    1
    74    53    54    1
    75    54    55    2
    76    54    56    1
    77    56   112    1
    78    56   113    1
    79    56   114    1
    80    57   115    1
    81    57   116    1
    82    57   117    1
    83    58   118    1
    84    58   119    1
    85    58   120    1
    86    59   121    1
    87    59   122    1
    88    59   123    1
    89    60    61    2
    90     1    47    1
    91     1    62    1
    92     2    63    1
    93     3    64    1
    94     4    65    1
    95     5     6    1
    96     7     8    2
    97     9    78    1
    98    15    79    1
    99    18    80    1
   100    18    81    1
   101    19    82    1
   102    19    83    1
   103    20    23    1
   104    21    84    1
   105    21    85    1
   106    22    86    1
   107    22    87    1
   108    27    45    1
   109    28    34    1
   110    32    58    1
   111    33    46    2
   112    36    51    1
   113    36    66    1
   114    37    52    1
   115    37    67    1
   116    38    53    1
   117    38    68    1
   118    42    48    1
   119    42    72    1
   120    43    44    2
   121    60    73    1
   122    61    74    1
   123    39    69    1
   124    39    57    1
   125    40    70    1
   126    40    50    1
   127    41    71    1
   128    41    49    1
