@<TRIPOS>MOLECULE
*****
 123 128 0 0 0
SMALL
GASTEIGER

@<TRIPOS>ATOM
     1 C         3.373194   1.417298   1.926474 C.3        1 UNL1     0.0009
     2 C         3.800555   1.243901   3.722117 C.2        1 UNL1     -0.0787
     3 C         3.844101   1.791836   5.061489 C.2        1 UNL1     -0.0649
     4 C         4.300025   1.008965   6.491735 C.2        1 UNL1     -0.0542
     5 C         4.217125   1.033249   7.905813 C.2        1 UNL1     0.0115
     6 C         3.780887   1.892316   9.124428 C.3        1 UNL1     -0.0348
     7 C         4.550229   -0.30551   8.726638 C.2        1 UNL1     0.2441
     8 O         5.612966   -0.483975   9.30566 O.2        1 UNL1     -0.2702
     9 N         3.446949   -1.146178   8.955112 N.am        1 UNL1     -0.2772
     10 C         3.286571   -2.023466   7.907273 C.2        1 UNL1     0.1049
     11 C         2.633832   -1.561585   6.856169 C.2        1 UNL1     0.0801
     12 C         4.535681   -3.643694   6.467857 C.ar        1 UNL1     0.0753
     13 C         3.959495   -2.969368   5.344513 C.ar        1 UNL1     0.0305
     14 C         2.886968   -1.990478   5.507336 C.2        1 UNL1     0.0924
     15 N         1.911408   -0.437182   6.71352 N.pl3        1 UNL1     -0.3170
     16 C         1.267002   -0.489038   5.4281 C.3        1 UNL1     0.1275
     17 N         2.175651   -1.349358   4.584341 N.2        1 UNL1     -0.2557
     18 C         -0.025235   -1.281293   5.601754 C.3        1 UNL1     0.0016
     19 C         -0.854884   -0.625216   6.693924 C.3        1 UNL1     0.0026
     20 N         -1.132138   0.751335   6.307576 N.3        1 UNL1     -0.3018
     21 C         0.050975   1.577238   6.057582 C.3        1 UNL1     0.0026
     22 C         0.867327   0.902063   4.954131 C.3        1 UNL1     0.0016
     23 C         -2.156553   1.370919   7.124481 C.3        1 UNL1     0.0012
     24 C         -2.241463   2.877095   6.831256 C.3        1 UNL1     -0.0339
     25 C         -3.700067   3.362359   6.798875 C.3        1 UNL1     -0.0615
     26 C         -1.416842   3.652153   7.844204 C.3        1 UNL1     -0.0615
     27 C         5.471243   -4.661318   6.296729 C.ar        1 UNL1     0.1347
     28 C         5.877256   -5.116982   5.055128 C.ar        1 UNL1     0.0342
     29 C         5.333572   -4.405451   3.964579 C.ar        1 UNL1     0.1435
     30 C         4.422852   -3.359927   4.121697 C.ar        1 UNL1     0.0774
     31 O         5.546057   -4.799161   2.689883 O.3        1 UNL1     -0.4436
     32 C         4.49934   -4.168739   1.936342 C.3        1 UNL1     0.3143
     33 C         4.074187   -2.976599   2.769565 C.2        1 UNL1     0.2504
     34 C         6.678371   -6.361467   4.791363 C.3        1 UNL1     -0.0327
     35 O         5.089844   -3.650799   0.737886 O.2        1 UNL1     -0.4528
     36 C         2.358836   -3.75346   -1.896339 C.3        1 UNL1     0.0854
     37 C         0.930346   -3.085202   -1.877055 C.3        1 UNL1     0.0236
     38 C         0.611572   -2.135376   -3.129237 C.3        1 UNL1     0.1131
     39 C         1.63916   -1.004551   -3.538586 C.3        1 UNL1     0.0200
     40 C         2.353918   -0.04999   -2.372236 C.3        1 UNL1     0.0661
     41 C         1.545592   0.76762   -1.124946 C.3        1 UNL1     0.0091
     42 C         2.087256   1.169576   0.581053 C.3        1 UNL1     0.0661
     43 C         4.03745   -3.284701   7.818838 C.2        1 UNL1     0.2131
     44 O         4.135582   -4.014844   8.788373 O.2        1 UNL1     -0.2851
     45 O         6.017381   -5.234971   7.443068 O.3        1 UNL1     -0.5056
     46 O         3.579613   -1.935713   2.398343 O.2        1 UNL1     -0.2836
     47 C         4.402198   2.335305   1.213455 C.3        1 UNL1     -0.0566
     48 O         1.650348   2.584831   0.508375 O.3        1 UNL1     -0.3909
     49 C         0.134328   0.232917   -1.025342 C.3        1 UNL1     -0.0577
     50 O         3.52293   -0.664611   -1.868873 O.3        1 UNL1     -0.3910
     51 O         3.235452   -3.304439   -2.904979 O.3        1 UNL1     -0.3753
     52 C         0.475291   -2.726661   -0.424705 C.3        1 UNL1     -0.0564
     53 O         -0.843995   -1.799157   -3.272792 O.3        1 UNL1     -0.4608
     54 C         -1.649544   -1.312175   -2.276866 C.2        1 UNL1     0.3042
     55 O         -2.857736   -1.497238   -2.135939 O.2        1 UNL1     -0.2512
     56 C         -0.909381   -0.516221   -1.239884 C.3        1 UNL1     0.0332
     57 C         2.574679   -1.597674   -4.692357 C.3        1 UNL1     -0.0567
     58 C         3.330851   -5.180166   1.87996 C.3        1 UNL1     0.0210
     59 C         4.485199   -3.990548   -2.962014 C.3        1 UNL1     0.0372
     60 C         3.106732   -3.675953   -0.611892 C.2        1 UNL1     -0.0208
     61 C         4.380994   -3.364564   -0.370981 C.2        1 UNL1     0.0882
     62 H         3.710191   0.386025   1.766404 H        1 UNL1     0.0365
     63 H         4.281001   0.263269   3.723272 H        1 UNL1     0.0576
     64 H         3.408611   2.765732   5.295974 H        1 UNL1     0.0615
     65 H         4.789398   0.095132   6.14402 H        1 UNL1     0.0622
     66 H         2.16174   -4.821316   -2.06629 H        1 UNL1     0.0645
     67 H         0.238496   -3.926182   -2.057762 H        1 UNL1     0.0362
     68 H         0.657112   -2.8784   -3.940018 H        1 UNL1     0.0741
     69 H         1.129696   -0.279343   -4.159012 H        1 UNL1     0.0359
     70 H         2.727213   0.777471   -3.005497 H        1 UNL1     0.0600
     71 H         1.372967   1.745809   -1.615155 H        1 UNL1     0.0348
     72 H         3.005184   0.96005   0.012879 H        1 UNL1     0.0602
     73 H         2.493095   -4.044316   0.172332 H        1 UNL1     0.0628
     74 H         5.05825   -2.926885   -1.105147 H        1 UNL1     0.1022
     75 H         4.656868   2.116427   9.779764 H        1 UNL1     0.0279
     76 H         3.392886   2.884388   8.904615 H        1 UNL1     0.0279
     77 H         3.125755   1.344954   9.817896 H        1 UNL1     0.0279
     78 H         2.598621   -0.587347   9.019341 H        1 UNL1     0.1553
     79 H         1.545752   0.091428   7.484104 H        1 UNL1     0.1484
     80 H         -0.563866   -1.300594   4.646626 H        1 UNL1     0.0317
     81 H         0.186915   -2.323576   5.863081 H        1 UNL1     0.0317
     82 H         -0.349894   -0.668283   7.670163 H        1 UNL1     0.0428
     83 H         -1.77072   -1.207017   6.802567 H        1 UNL1     0.0428
     84 H         -0.18449   2.581678   5.692252 H        1 UNL1     0.0428
     85 H         0.626535   1.755643   6.976397 H        1 UNL1     0.0428
     86 H         1.648638   1.5963   4.705985 H        1 UNL1     0.0317
     87 H         0.276049   0.845202   4.032039 H        1 UNL1     0.0317
     88 H         -3.120434   0.910604   6.870832 H        1 UNL1     0.0429
     89 H         -1.982158   1.184546   8.192013 H        1 UNL1     0.0429
     90 H         -1.784427   3.079354   5.855334 H        1 UNL1     0.0308
     91 H         -4.065581   3.590994   7.804473 H        1 UNL1     0.0233
     92 H         -3.797626   4.251187   6.17112 H        1 UNL1     0.0233
     93 H         -4.380174   2.613107   6.375896 H        1 UNL1     0.0233
     94 H         -0.350349   3.450609   7.696526 H        1 UNL1     0.0233
     95 H         -1.578169   4.725942   7.714154 H        1 UNL1     0.0233
     96 H         -1.681889   3.376932   8.868885 H        1 UNL1     0.0233
     97 H         6.141927   -7.260282   5.080482 H        1 UNL1     0.0280
     98 H         6.915953   -6.482732   3.726419 H        1 UNL1     0.0280
     99 H         7.620115   -6.322187   5.362913 H        1 UNL1     0.0280
     100 H         5.940984   -6.171936   7.486476 H        1 UNL1     0.2922
     101 H         4.034482   3.361138   1.203041 H        1 UNL1     0.0236
     102 H         4.669295   1.98644   0.216492 H        1 UNL1     0.0236
     103 H         5.359245   2.386595   1.759003 H        1 UNL1     0.0236
     104 H         0.77339   2.645088   0.935322 H        1 UNL1     0.2098
     105 H         -0.636754   0.944974   -1.30857 H        1 UNL1     0.0234
     106 H         -0.028164   -0.720029   -1.528747 H        1 UNL1     0.0234
     107 H         0.0   -0.0   0.0 H        1 UNL1     0.0234
     108 H         4.17903   0.042221   -1.714962 H        1 UNL1     0.2098
     109 H         1.301103   -2.790242   0.297585 H        1 UNL1     0.0234
     110 H         0.000832   -1.742029   -0.353066 H        1 UNL1     0.0234
     111 H         -0.293706   -3.419967   -0.058759 H        1 UNL1     0.0234
     112 H         -0.164481   -1.14844   -0.747169 H        1 UNL1     0.0342
     113 H         -0.447854   0.375818   -1.660721 H        1 UNL1     0.0342
     114 H         -1.630942   -0.189942   -0.47827 H        1 UNL1     0.0342
     115 H         2.568291   -0.963616   -5.58964 H        1 UNL1     0.0234
     116 H         3.616015   -1.733437   -4.393631 H        1 UNL1     0.0234
     117 H         2.211232   -2.554533   -5.104992 H        1 UNL1     0.0234
     118 H         3.494705   -5.960824   1.11659 H        1 UNL1     0.0309
     119 H         3.129683   -5.658384   2.843828 H        1 UNL1     0.0309
     120 H         2.388284   -4.716601   1.568865 H        1 UNL1     0.0309
     121 H         4.764508   -4.080179   -4.011446 H        1 UNL1     0.0524
     122 H         5.290092   -3.437006   -2.450375 H        1 UNL1     0.0524
     123 H         4.394063   -4.975498   -2.512947 H        1 UNL1     0.0524
@<TRIPOS>BOND
     1     1     2    1
     2     1    42    1
     3     2     3    2
     4     3     4    1
     5     4     5    2
     6     5     7    1
     7     6    75    1
     8     6    76    1
     9     6    77    1
    10     7     9   am
    11     9    10    1
    12    10    11    2
    13    10    43    1
    14    11    14    1
    15    11    15    1
    16    12    13   ar
    17    12    27   ar
    18    12    43    1
    19    13    14    1
    20    13    30   ar
    21    14    17    2
    22    15    16    1
    23    16    17    1
    24    16    18    1
    25    16    22    1
    26    18    19    1
    27    19    20    1
    28    20    21    1
    29    21    22    1
    30    23    24    1
    31    23    88    1
    32    23    89    1
    33    24    25    1
    34    24    26    1
    35    24    90    1
    36    25    91    1
    37    25    92    1
    38    25    93    1
    39    26    94    1
    40    26    95    1
    41    26    96    1
    42    27    28   ar
    43    28    29   ar
    44    29    30   ar
    45    29    31    1
    46    30    33    1
    47    31    32    1
    48    32    33    1
    49    32    35    1
    50    34    97    1
    51    34    98    1
    52    34    99    1
    53    35    61    1
    54    36    37    1
    55    36    60    1
    56    37    38    1
    57    38    39    1
    58    39    40    1
    59    40    41    1
    60    41    42    1
    61    45   100    1
    62    47   101    1
    63    47   102    1
    64    47   103    1
    65    48   104    1
    66    49   105    1
    67    49   106    1
    68    49   107    1
    69    50   108    1
    70    51    59    1
    71    52   109    1
    72    52   110    1
    73    52   111    1
    74    53    54    1
    75    54    55    2
    76    54    56    1
    77    56   112    1
    78    56   113    1
    79    56   114    1
    80    57   115    1
    81    57   116    1
    82    57   117    1
    83    58   118    1
    84    58   119    1
    85    58   120    1
    86    59   121    1
    87    59   122    1
    88    59   123    1
    89    60    61    2
    90     1    47    1
    91     1    62    1
    92     2    63    1
    93     3    64    1
    94     4    65    1
    95     5     6    1
    96     7     8    2
    97     9    78    1
    98    15    79    1
    99    18    80    1
   100    18    81    1
   101    19    82    1
   102    19    83    1
   103    20    23    1
   104    21    84    1
   105    21    85    1
   106    22    86    1
   107    22    87    1
   108    27    45    1
   109    28    34    1
   110    32    58    1
   111    33    46    2
   112    36    51    1
   113    36    66    1
   114    37    52    1
   115    37    67    1
   116    38    53    1
   117    38    68    1
   118    42    48    1
   119    42    72    1
   120    43    44    2
   121    60    73    1
   122    61    74    1
   123    39    69    1
   124    39    57    1
   125    40    70    1
   126    40    50    1
   127    41    71    1
   128    41    49    1
