@<TRIPOS>MOLECULE
*****
 123 128 0 0 0
SMALL
GASTEIGER

@<TRIPOS>ATOM
     1 C         2.913643   -0.713996   -3.092604 C.3        1 UNL1     0.0009
     2 C         4.20102   -2.046047   -3.165672 C.2        1 UNL1     -0.0787
     3 C         5.585717   -2.460499   -3.082677 C.2        1 UNL1     -0.0649
     4 C         6.205153   -4.035428   -3.130153 C.2        1 UNL1     -0.0542
     5 C         7.315159   -4.856522   -2.81271 C.2        1 UNL1     0.0115
     6 C         8.796676   -4.84126   -2.345592 C.3        1 UNL1     -0.0348
     7 C         7.109463   -6.446936   -2.740157 C.2        1 UNL1     0.2441
     8 O         7.459166   -7.204621   -3.634666 O.2        1 UNL1     -0.2702
     9 N         6.740874   -6.936029   -1.474818 N.am        1 UNL1     -0.2772
     10 C         5.372415   -6.916629   -1.332458 C.2        1 UNL1     0.1049
     11 C         4.84135   -5.763365   -0.968899 C.2        1 UNL1     0.0801
     12 C         3.249336   -7.576913   -2.47871 C.ar        1 UNL1     0.0753
     13 C         2.79755   -6.239603   -2.241856 C.ar        1 UNL1     0.0305
     14 C         3.52841   -5.329434   -1.362944 C.2        1 UNL1     0.0924
     15 N         5.43202   -4.647332   -0.508348 N.pl3        1 UNL1     -0.3170
     16 C         4.394826   -3.739614   -0.095392 C.3        1 UNL1     0.1275
     17 N         3.209127   -4.104502   -0.954868 N.2        1 UNL1     -0.2557
     18 C         4.011897   -4.110745   1.334058 C.3        1 UNL1     0.0016
     19 C         5.262034   -4.070647   2.198431 C.3        1 UNL1     0.0026
     20 N         5.829007   -2.730482   2.139033 N.3        1 UNL1     -0.3018
     21 C         6.172628   -2.259764   0.795635 C.3        1 UNL1     0.0026
     22 C         4.901508   -2.303953   -0.054186 C.3        1 UNL1     0.0016
     23 C         6.840252   -2.500589   3.151543 C.3        1 UNL1     0.0012
     24 C         8.219233   -2.955862   2.648658 C.3        1 UNL1     -0.0339
     25 C         9.342221   -2.495231   3.592467 C.3        1 UNL1     -0.0615
     26 C         8.232492   -4.462544   2.457568 C.3        1 UNL1     -0.0615
     27 C         2.485782   -8.476174   -3.219273 C.ar        1 UNL1     0.1347
     28 C         1.241003   -8.16663   -3.737691 C.ar        1 UNL1     0.0342
     29 C         0.838564   -6.829618   -3.533714 C.ar        1 UNL1     0.1435
     30 C         1.609218   -5.907208   -2.824862 C.ar        1 UNL1     0.0774
     31 O         -0.395222   -6.40399   -3.882454 O.3        1 UNL1     -0.4436
     32 C         -0.594321   -5.204608   -3.119096 C.3        1 UNL1     0.3143
     33 C         0.799204   -4.707394   -2.791863 C.2        1 UNL1     0.2504
     34 C         0.260546   -9.145661   -4.321046 C.3        1 UNL1     -0.0327
     35 O         -1.187972   -4.236871   -3.993347 O.2        1 UNL1     -0.4528
     36 C         -3.329561   -2.013982   -1.784174 C.3        1 UNL1     0.0854
     37 C         -2.910868   -1.159013   -0.526698 C.3        1 UNL1     0.0236
     38 C         -3.285031   0.398   -0.613054 C.3        1 UNL1     0.1131
     39 C         -2.874209   1.234494   -1.891246 C.3        1 UNL1     0.0200
     40 C         -1.357876   1.059543   -2.563974 C.3        1 UNL1     0.0661
     41 C         0.114823   1.121176   -1.724349 C.3        1 UNL1     0.0091
     42 C         1.697833   0.246804   -2.032496 C.3        1 UNL1     0.0661
     43 C         4.516579   -8.002115   -1.834072 C.2        1 UNL1     0.2131
     44 O         4.807691   -9.165754   -1.62446 O.2        1 UNL1     -0.2851
     45 O         3.018618   -9.744165   -3.442257 O.3        1 UNL1     -0.5056
     46 O         1.162938   -3.573175   -2.57484 O.2        1 UNL1     -0.2836
     47 C         2.954681   0.147021   -4.383707 C.3        1 UNL1     -0.0566
     48 O         2.530245   1.465923   -1.891232 O.3        1 UNL1     -0.3909
     49 C         -0.164266   1.019003   -0.241391 C.3        1 UNL1     -0.0577
     50 O         -1.341058   -0.006941   -3.491364 O.3        1 UNL1     -0.3910
     51 O         -3.815964   -1.28656   -2.889479 O.3        1 UNL1     -0.3753
     52 C         -1.564801   -1.657261   0.093627 C.3        1 UNL1     -0.0564
     53 O         -3.202711   1.109487   0.705784 O.3        1 UNL1     -0.4608
     54 C         -4.047675   2.102464   1.127641 C.2        1 UNL1     0.3042
     55 O         -4.455444   3.063089   0.475904 O.2        1 UNL1     -0.2512
     56 C         -4.542231   1.914283   2.533599 C.3        1 UNL1     0.0332
     57 C         -4.130916   1.252162   -2.880462 C.3        1 UNL1     -0.0567
     58 C         -1.292403   -5.63202   -1.807025 C.3        1 UNL1     0.0210
     59 C         -4.601674   -2.045293   -3.807547 C.3        1 UNL1     0.0372
     60 C         -2.275566   -2.928248   -2.30222 C.2        1 UNL1     -0.0208
     61 C         -1.87553   -3.16611   -3.552075 C.2        1 UNL1     0.0882
     62 H         2.142249   -1.477469   -3.249995 H        1 UNL1     0.0365
     63 H         3.588424   -2.906193   -3.443782 H        1 UNL1     0.0576
     64 H         6.377234   -1.760282   -2.80644 H        1 UNL1     0.0615
     65 H         5.364557   -4.635366   -3.489257 H        1 UNL1     0.0622
     66 H         -4.138677   -2.662613   -1.419953 H        1 UNL1     0.0645
     67 H         -3.59137   -1.504354   0.270934 H        1 UNL1     0.0362
     68 H         -4.382269   0.32147   -0.654711 H        1 UNL1     0.0741
     69 H         -2.903271   2.286968   -1.642524 H        1 UNL1     0.0359
     70 H         -1.320784   1.97135   -3.190307 H        1 UNL1     0.0600
     71 H         0.35092   2.19852   -1.827036 H        1 UNL1     0.0348
     72 H         1.137087   0.200836   -2.977359 H        1 UNL1     0.0602
     73 H         -1.908665   -3.525624   -1.504866 H        1 UNL1     0.0628
     74 H         -2.15901   -2.563352   -4.415533 H        1 UNL1     0.1022
     75 H         9.20746   -3.803378   -2.37863 H        1 UNL1     0.0279
     76 H         8.983435   -5.134421   -1.314939 H        1 UNL1     0.0279
     77 H         9.468064   -5.362471   -3.043646 H        1 UNL1     0.0279
     78 H         7.132782   -6.338705   -0.749774 H        1 UNL1     0.1553
     79 H         6.358443   -4.625741   -0.123372 H        1 UNL1     0.1484
     80 H         3.25259   -3.406554   1.695074 H        1 UNL1     0.0317
     81 H         3.558452   -5.107055   1.371547 H        1 UNL1     0.0317
     82 H         5.997848   -4.825959   1.885392 H        1 UNL1     0.0428
     83 H         4.966626   -4.340157   3.212901 H        1 UNL1     0.0428
     84 H         6.521265   -1.222648   0.77008 H        1 UNL1     0.0428
     85 H         7.004828   -2.831736   0.362497 H        1 UNL1     0.0428
     86 H         5.158126   -1.830736   -0.98381 H        1 UNL1     0.0317
     87 H         4.143376   -1.63465   0.370511 H        1 UNL1     0.0317
     88 H         6.880905   -1.422522   3.35505 H        1 UNL1     0.0429
     89 H         6.57945   -2.996443   4.095409 H        1 UNL1     0.0429
     90 H         8.399293   -2.526447   1.655988 H        1 UNL1     0.0308
     91 H         10.162554   -3.218785   3.617465 H        1 UNL1     0.0233
     92 H         9.731508   -1.522231   3.283702 H        1 UNL1     0.0233
     93 H         8.995207   -2.371921   4.625526 H        1 UNL1     0.0233
     94 H         8.951643   -4.923888   3.143002 H        1 UNL1     0.0233
     95 H         7.244179   -4.875793   2.67762 H        1 UNL1     0.0233
     96 H         8.508175   -4.732597   1.434319 H        1 UNL1     0.0233
     97 H         0.594869   -9.536196   -5.277572 H        1 UNL1     0.0280
     98 H         0.114327   -10.020318   -3.67386 H        1 UNL1     0.0280
     99 H         -0.711903   -8.648859   -4.471465 H        1 UNL1     0.0280
     100 H         2.82431   -10.374146   -2.770698 H        1 UNL1     0.2922
     101 H         2.244501   0.969385   -4.299934 H        1 UNL1     0.0236
     102 H         2.801413   -0.434801   -5.291988 H        1 UNL1     0.0236
     103 H         3.933252   0.635596   -4.524728 H        1 UNL1     0.0236
     104 H         1.989257   2.141515   -1.437495 H        1 UNL1     0.2098
     105 H         0.494125   1.618886   0.381885 H        1 UNL1     0.0234
     106 H         -1.20442   1.18498   0.038714 H        1 UNL1     0.0234
     107 H         0.0   0.0   0.0 H        1 UNL1     0.0234
     108 H         -1.810439   0.297325   -4.291909 H        1 UNL1     0.2098
     109 H         -1.345277   -1.172515   1.055158 H        1 UNL1     0.0234
     110 H         -1.522885   -2.745176   0.213735 H        1 UNL1     0.0234
     111 H         -0.710129   -1.428118   -0.556738 H        1 UNL1     0.0234
     112 H         -5.418383   1.258767   2.53531 H        1 UNL1     0.0342
     113 H         -3.765462   1.529983   3.192982 H        1 UNL1     0.0342
     114 H         -4.853736   2.893818   2.921722 H        1 UNL1     0.0342
     115 H         -4.616124   2.23759   -2.906781 H        1 UNL1     0.0234
     116 H         -3.889984   0.977208   -3.909248 H        1 UNL1     0.0234
     117 H         -4.965013   0.612872   -2.543519 H        1 UNL1     0.0234
     118 H         -0.938425   -5.047699   -0.939688 H        1 UNL1     0.0309
     119 H         -2.38385   -5.568127   -1.860536 H        1 UNL1     0.0309
     120 H         -1.062574   -6.66561   -1.525998 H        1 UNL1     0.0309
     121 H         -3.943439   -2.37475   -4.611004 H        1 UNL1     0.0524
     122 H         -5.034578   -2.946564   -3.342421 H        1 UNL1     0.0524
     123 H         -5.405694   -1.43454   -4.208331 H        1 UNL1     0.0524
@<TRIPOS>BOND
     1     1     2    1
     2     1    42    1
     3     2     3    2
     4     3     4    1
     5     4     5    2
     6     5     7    1
     7     6    75    1
     8     6    76    1
     9     6    77    1
    10     7     9   am
    11     9    10    1
    12    10    11    2
    13    10    43    1
    14    11    14    1
    15    11    15    1
    16    12    13   ar
    17    12    27   ar
    18    12    43    1
    19    13    14    1
    20    13    30   ar
    21    14    17    2
    22    15    16    1
    23    16    17    1
    24    16    18    1
    25    16    22    1
    26    18    19    1
    27    19    20    1
    28    20    21    1
    29    21    22    1
    30    23    24    1
    31    23    88    1
    32    23    89    1
    33    24    25    1
    34    24    26    1
    35    24    90    1
    36    25    91    1
    37    25    92    1
    38    25    93    1
    39    26    94    1
    40    26    95    1
    41    26    96    1
    42    27    28   ar
    43    28    29   ar
    44    29    30   ar
    45    29    31    1
    46    30    33    1
    47    31    32    1
    48    32    33    1
    49    32    35    1
    50    34    97    1
    51    34    98    1
    52    34    99    1
    53    35    61    1
    54    36    37    1
    55    36    60    1
    56    37    38    1
    57    38    39    1
    58    39    40    1
    59    40    41    1
    60    41    42    1
    61    45   100    1
    62    47   101    1
    63    47   102    1
    64    47   103    1
    65    48   104    1
    66    49   105    1
    67    49   106    1
    68    49   107    1
    69    50   108    1
    70    51    59    1
    71    52   109    1
    72    52   110    1
    73    52   111    1
    74    53    54    1
    75    54    55    2
    76    54    56    1
    77    56   112    1
    78    56   113    1
    79    56   114    1
    80    57   115    1
    81    57   116    1
    82    57   117    1
    83    58   118    1
    84    58   119    1
    85    58   120    1
    86    59   121    1
    87    59   122    1
    88    59   123    1
    89    60    61    2
    90     1    47    1
    91     1    62    1
    92     2    63    1
    93     3    64    1
    94     4    65    1
    95     5     6    1
    96     7     8    2
    97     9    78    1
    98    15    79    1
    99    18    80    1
   100    18    81    1
   101    19    82    1
   102    19    83    1
   103    20    23    1
   104    21    84    1
   105    21    85    1
   106    22    86    1
   107    22    87    1
   108    27    45    1
   109    28    34    1
   110    32    58    1
   111    33    46    2
   112    36    51    1
   113    36    66    1
   114    37    52    1
   115    37    67    1
   116    38    53    1
   117    38    68    1
   118    42    48    1
   119    42    72    1
   120    43    44    2
   121    60    73    1
   122    61    74    1
   123    39    69    1
   124    39    57    1
   125    40    70    1
   126    40    50    1
   127    41    71    1
   128    41    49    1
