@<TRIPOS>MOLECULE
*****
 123 128 0 0 0
SMALL
GASTEIGER

@<TRIPOS>ATOM
     1 C         5.164787   1.758594   0.481239 C.3        1 UNL1     0.0009
     2 C         6.601191   2.559579   -0.374451 C.2        1 UNL1     -0.0787
     3 C         7.883683   2.457586   -1.038422 C.2        1 UNL1     -0.0649
     4 C         8.760284   3.687681   -1.803141 C.2        1 UNL1     -0.0542
     5 C         9.780681   3.974037   -2.743283 C.2        1 UNL1     0.0115
     6 C         10.910249   3.343039   -3.603074 C.3        1 UNL1     -0.0348
     7 C         9.874776   5.452539   -3.361481 C.2        1 UNL1     0.2441
     8 O         10.697432   6.278109   -2.989733 O.2        1 UNL1     -0.2702
     9 N         9.125201   5.649336   -4.534324 N.am        1 UNL1     -0.2772
     10 C         7.841807   6.037018   -4.224607 C.2        1 UNL1     0.1049
     11 C         6.996916   5.06698   -3.925595 C.2        1 UNL1     0.0801
     12 C         6.540509   7.653326   -2.827644 C.ar        1 UNL1     0.0753
     13 C         5.782408   6.528127   -2.371774 C.ar        1 UNL1     0.0305
     14 C         5.901324   5.217476   -3.00668 C.2        1 UNL1     0.0924
     15 N         7.12118   3.736922   -4.07403 N.pl3        1 UNL1     -0.3170
     16 C         5.851772   3.138804   -3.756051 C.3        1 UNL1     0.1275
     17 N         5.213538   4.101057   -2.784224 N.2        1 UNL1     -0.2557
     18 C         4.99981   3.186851   -5.020786 C.3        1 UNL1     0.0016
     19 C         5.756326   2.494686   -6.143363 C.3        1 UNL1     0.0026
     20 N         6.027757   1.120005   -5.746367 N.3        1 UNL1     -0.3018
     21 C         6.790362   0.970341   -4.505238 C.3        1 UNL1     0.0026
     22 C         6.00998   1.668846   -3.390343 C.3        1 UNL1     0.0016
     23 C         6.47404   0.292191   -6.849181 C.3        1 UNL1     0.0012
     24 C         5.319622   0.03359   -7.8301 C.3        1 UNL1     -0.0339
     25 C         5.395065   0.970452   -9.046922 C.3        1 UNL1     -0.0615
     26 C         5.308928   -1.426408   -8.248515 C.3        1 UNL1     -0.0615
     27 C         6.333989   8.92503   -2.29827 C.ar        1 UNL1     0.1347
     28 C         5.373899   9.201091   -1.341156 C.ar        1 UNL1     0.0342
     29 C         4.673292   8.069527   -0.872246 C.ar        1 UNL1     0.1435
     30 C         4.894586   6.783779   -1.367321 C.ar        1 UNL1     0.0774
     31 O         3.631529   8.188672   -0.020458 O.3        1 UNL1     -0.4436
     32 C         2.911373   6.953931   -0.153352 C.3        1 UNL1     0.3143
     33 C         3.926207   5.957796   -0.67684 C.2        1 UNL1     0.2504
     34 C         4.925164   10.570138   -0.911683 C.3        1 UNL1     -0.0327
     35 O         2.55025   6.52729   1.166049 O.2        1 UNL1     -0.4528
     36 C         -0.690281   4.588276   0.782289 C.3        1 UNL1     0.0854
     37 C         -0.99347   3.320247   -0.105237 C.3        1 UNL1     0.0236
     38 C         -1.593168   2.064816   0.692259 C.3        1 UNL1     0.1131
     39 C         -0.867775   1.545082   1.998379 C.3        1 UNL1     0.0200
     40 C         0.793552   1.401783   2.041928 C.3        1 UNL1     0.0661
     41 C         1.754674   0.624789   0.879975 C.3        1 UNL1     0.0091
     42 C         3.462265   0.984817   0.314364 C.3        1 UNL1     0.0661
     43 C         7.491625   7.437811   -3.946211 C.2        1 UNL1     0.2131
     44 O         7.891015   8.330606   -4.671567 O.2        1 UNL1     -0.2851
     45 O         7.145411   9.957393   -2.76438 O.3        1 UNL1     -0.5056
     46 O         3.943478   4.755359   -0.536481 O.2        1 UNL1     -0.2836
     47 C         5.56057   1.341028   1.923104 C.3        1 UNL1     -0.0566
     48 O         3.912384   -0.425076   0.407704 O.3        1 UNL1     -0.3909
     49 C         0.921677   0.381381   -0.358719 C.3        1 UNL1     -0.0577
     50 O         1.392063   2.623422   2.425472 O.3        1 UNL1     -0.3910
     51 O         -0.815187   4.409536   2.175086 O.3        1 UNL1     -0.3753
     52 C         0.052025   3.151813   -1.25568 C.3        1 UNL1     -0.0564
     53 O         -2.193912   1.018013   -0.199725 O.3        1 UNL1     -0.4608
     54 C         -2.427079   -0.286264   0.15017 C.2        1 UNL1     0.3042
     55 O         -1.855494   -1.288079   -0.278192 O.2        1 UNL1     -0.2512
     56 C         -3.469204   -0.444702   1.220491 C.3        1 UNL1     0.0332
     57 C         -1.590504   2.223263   3.253731 C.3        1 UNL1     -0.0567
     58 C         1.836703   7.189148   -1.240223 C.3        1 UNL1     0.0210
     59 C         -1.130282   5.594033   2.905528 C.3        1 UNL1     0.0372
     60 C         0.638165   5.217032   0.547646 C.2        1 UNL1     -0.0208
     61 C         1.549957   5.660221   1.414228 C.2        1 UNL1     0.0882
     62 H         4.687677   2.742883   0.56032 H        1 UNL1     0.0365
     63 H         6.333661   3.613877   -0.277735 H        1 UNL1     0.0576
     64 H         8.342606   1.489534   -1.25143 H        1 UNL1     0.0615
     65 H         8.271898   4.605249   -1.463979 H        1 UNL1     0.0622
     66 H         -1.435554   5.331455   0.465588 H        1 UNL1     0.0645
     67 H         -1.858919   3.623741   -0.719606 H        1 UNL1     0.0362
     68 H         -2.540997   2.503391   1.039815 H        1 UNL1     0.0741
     69 H         -1.198286   0.535192   2.201585 H        1 UNL1     0.0359
     70 H         0.905431   0.74862   2.92845 H        1 UNL1     0.0600
     71 H         1.799108   -0.392893   1.315068 H        1 UNL1     0.0348
     72 H         3.355103   1.480686   1.290041 H        1 UNL1     0.0602
     73 H         0.7566   5.406155   -0.490358 H        1 UNL1     0.0628
     74 H         1.531863   5.458065   2.485696 H        1 UNL1     0.1022
     75 H         10.937288   2.235479   -3.463019 H        1 UNL1     0.0279
     76 H         10.810728   3.440391   -4.681818 H        1 UNL1     0.0279
     77 H         11.915538   3.629435   -3.260919 H        1 UNL1     0.0279
     78 H         9.064581   4.775164   -5.052229 H        1 UNL1     0.1553
     79 H         7.787393   3.304791   -4.687509 H        1 UNL1     0.1484
     80 H         4.038947   2.696376   -4.823444 H        1 UNL1     0.0317
     81 H         4.772217   4.221152   -5.300205 H        1 UNL1     0.0317
     82 H         6.686564   3.025063   -6.394898 H        1 UNL1     0.0428
     83 H         5.131767   2.542006   -7.035965 H        1 UNL1     0.0428
     84 H         6.911645   -0.069976   -4.187681 H        1 UNL1     0.0428
     85 H         7.82011   1.338716   -4.611237 H        1 UNL1     0.0428
     86 H         6.526021   1.426318   -2.47992 H        1 UNL1     0.0317
     87 H         5.03099   1.191097   -3.262163 H        1 UNL1     0.0317
     88 H         7.269871   0.830682   -7.380193 H        1 UNL1     0.0429
     89 H         6.907456   -0.650258   -6.490415 H        1 UNL1     0.0429
     90 H         4.366363   0.204859   -7.31612 H        1 UNL1     0.0308
     91 H         6.350584   0.867114   -9.569804 H        1 UNL1     0.0233
     92 H         4.580211   0.763747   -9.744702 H        1 UNL1     0.0233
     93 H         5.297902   2.026547   -8.767533 H        1 UNL1     0.0233
     94 H         4.617619   -1.574483   -9.085176 H        1 UNL1     0.0233
     95 H         6.307029   -1.727832   -8.578515 H        1 UNL1     0.0233
     96 H         4.998541   -2.075324   -7.424782 H        1 UNL1     0.0233
     97 H         4.125051   10.52542   -0.178847 H        1 UNL1     0.0280
     98 H         5.734495   11.141413   -0.438518 H        1 UNL1     0.0280
     99 H         4.560287   11.130666   -1.787907 H        1 UNL1     0.0280
     100 H         6.677771   10.705405   -3.092121 H        1 UNL1     0.2922
     101 H         4.694723   0.921885   2.435241 H        1 UNL1     0.0236
     102 H         6.021106   2.148081   2.491924 H        1 UNL1     0.0236
     103 H         6.308569   0.530686   1.92899 H        1 UNL1     0.0236
     104 H         4.326039   -0.545176   1.284879 H        1 UNL1     0.2098
     105 H         0.708423   1.275368   -0.939341 H        1 UNL1     0.0234
     106 H         1.292448   -0.411422   -1.008272 H        1 UNL1     0.0234
     107 H         0.0   -0.0   0.0 H        1 UNL1     0.0234
     108 H         1.208306   3.27118   1.718074 H        1 UNL1     0.2098
     109 H         1.078145   3.054941   -0.874359 H        1 UNL1     0.0234
     110 H         -0.172304   2.311507   -1.921491 H        1 UNL1     0.0234
     111 H         0.063909   4.02412   -1.922677 H        1 UNL1     0.0234
     112 H         -3.591502   -1.503774   1.466978 H        1 UNL1     0.0342
     113 H         -3.235133   0.138874   2.109588 H        1 UNL1     0.0342
     114 H         -4.426323   -0.078416   0.824355 H        1 UNL1     0.0342
     115 H         -2.659871   1.974067   3.29304 H        1 UNL1     0.0234
     116 H         -1.154431   1.951677   4.217126 H        1 UNL1     0.0234
     117 H         -1.630329   3.324651   3.196288 H        1 UNL1     0.0234
     118 H         0.934148   7.676882   -0.832157 H        1 UNL1     0.0309
     119 H         2.205589   7.772093   -2.090105 H        1 UNL1     0.0309
     120 H         1.450618   6.253412   -1.659081 H        1 UNL1     0.0309
     121 H         -0.292957   6.282436   2.794421 H        1 UNL1     0.0524
     122 H         -2.02948   6.099336   2.515464 H        1 UNL1     0.0524
     123 H         -1.285293   5.358589   3.954638 H        1 UNL1     0.0524
@<TRIPOS>BOND
     1     1     2    1
     2     1    42    1
     3     2     3    2
     4     3     4    1
     5     4     5    2
     6     5     7    1
     7     6    75    1
     8     6    76    1
     9     6    77    1
    10     7     9   am
    11     9    10    1
    12    10    11    2
    13    10    43    1
    14    11    14    1
    15    11    15    1
    16    12    13   ar
    17    12    27   ar
    18    12    43    1
    19    13    14    1
    20    13    30   ar
    21    14    17    2
    22    15    16    1
    23    16    17    1
    24    16    18    1
    25    16    22    1
    26    18    19    1
    27    19    20    1
    28    20    21    1
    29    21    22    1
    30    23    24    1
    31    23    88    1
    32    23    89    1
    33    24    25    1
    34    24    26    1
    35    24    90    1
    36    25    91    1
    37    25    92    1
    38    25    93    1
    39    26    94    1
    40    26    95    1
    41    26    96    1
    42    27    28   ar
    43    28    29   ar
    44    29    30   ar
    45    29    31    1
    46    30    33    1
    47    31    32    1
    48    32    33    1
    49    32    35    1
    50    34    97    1
    51    34    98    1
    52    34    99    1
    53    35    61    1
    54    36    37    1
    55    36    60    1
    56    37    38    1
    57    38    39    1
    58    39    40    1
    59    40    41    1
    60    41    42    1
    61    45   100    1
    62    47   101    1
    63    47   102    1
    64    47   103    1
    65    48   104    1
    66    49   105    1
    67    49   106    1
    68    49   107    1
    69    50   108    1
    70    51    59    1
    71    52   109    1
    72    52   110    1
    73    52   111    1
    74    53    54    1
    75    54    55    2
    76    54    56    1
    77    56   112    1
    78    56   113    1
    79    56   114    1
    80    57   115    1
    81    57   116    1
    82    57   117    1
    83    58   118    1
    84    58   119    1
    85    58   120    1
    86    59   121    1
    87    59   122    1
    88    59   123    1
    89    60    61    2
    90     1    47    1
    91     1    62    1
    92     2    63    1
    93     3    64    1
    94     4    65    1
    95     5     6    1
    96     7     8    2
    97     9    78    1
    98    15    79    1
    99    18    80    1
   100    18    81    1
   101    19    82    1
   102    19    83    1
   103    20    23    1
   104    21    84    1
   105    21    85    1
   106    22    86    1
   107    22    87    1
   108    27    45    1
   109    28    34    1
   110    32    58    1
   111    33    46    2
   112    36    51    1
   113    36    66    1
   114    37    52    1
   115    37    67    1
   116    38    53    1
   117    38    68    1
   118    42    48    1
   119    42    72    1
   120    43    44    2
   121    60    73    1
   122    61    74    1
   123    39    69    1
   124    39    57    1
   125    40    70    1
   126    40    50    1
   127    41    71    1
   128    41    49    1
