@<TRIPOS>MOLECULE
*****
 123 128 0 0 0
SMALL
GASTEIGER

@<TRIPOS>ATOM
     1 C         1.778043   -1.726278   -4.884445 C.3        1 UNL1     0.0009
     2 C         1.859508   -1.372996   -6.702573 C.2        1 UNL1     -0.0787
     3 C         1.380945   -1.602925   -8.04948 C.2        1 UNL1     -0.0649
     4 C         1.831305   -0.792866   -9.466285 C.2        1 UNL1     -0.0542
     5 C         1.458057   -0.489425   -10.798835 C.2        1 UNL1     0.0115
     6 C         0.447829   -0.82884   -11.929126 C.3        1 UNL1     -0.0348
     7 C         2.171482   0.740147   -11.5446 C.2        1 UNL1     0.2441
     8 O         3.059836   0.591393   -12.372383 O.2        1 UNL1     -0.2702
     9 N         1.531817   1.980891   -11.378664 N.am        1 UNL1     -0.2772
     10 C         1.99386   2.611744   -10.24647 C.2        1 UNL1     0.1049
     11 C         1.435444   2.245393   -9.107092 C.2        1 UNL1     0.0801
     12 C         4.095416   3.257641   -9.053318 C.ar        1 UNL1     0.0753
     13 C         3.524938   2.656094   -7.886569 C.ar        1 UNL1     0.0305
     14 C         2.122586   2.247863   -7.844077 C.2        1 UNL1     0.0924
     15 N         0.337385   1.503531   -8.882516 N.pl3        1 UNL1     -0.3170
     16 C         0.061047   1.54374   -7.471036 C.3        1 UNL1     0.1275
     17 N         1.407611   1.77162   -6.828729 N.2        1 UNL1     -0.2557
     18 C         -0.753806   2.805983   -7.205598 C.3        1 UNL1     0.0016
     19 C         -1.992184   2.779771   -8.087257 C.3        1 UNL1     0.0026
     20 N         -2.762634   1.58367   -7.776171 N.3        1 UNL1     -0.3018
     21 C         -2.042298   0.31955   -7.941955 C.3        1 UNL1     0.0026
     22 C         -0.804794   0.365817   -7.043992 C.3        1 UNL1     0.0016
     23 C         -4.098576   1.611547   -8.337532 C.3        1 UNL1     0.0012
     24 C         -4.96683   2.6503   -7.610289 C.3        1 UNL1     -0.0339
     25 C         -4.998517   3.98713   -8.369195 C.3        1 UNL1     -0.0615
     26 C         -6.364847   2.098712   -7.391017 C.3        1 UNL1     -0.0615
     27 C         5.396917   3.753794   -9.046543 C.ar        1 UNL1     0.1347
     28 C         6.207425   3.740784   -7.925401 C.ar        1 UNL1     0.0342
     29 C         5.642193   3.099745   -6.802572 C.ar        1 UNL1     0.1435
     30 C         4.352953   2.565822   -6.805479 C.ar        1 UNL1     0.0774
     31 O         6.263085   3.102476   -5.602784 O.3        1 UNL1     -0.4436
     32 C         5.225068   2.805631   -4.656593 C.3        1 UNL1     0.3143
     33 C         4.156596   2.085138   -5.453756 C.2        1 UNL1     0.2504
     34 C         7.510601   4.474259   -7.770979 C.3        1 UNL1     -0.0327
     35 O         5.758213   1.858862   -3.722443 O.2        1 UNL1     -0.4528
     36 C         3.958205   2.505292   -0.443695 C.3        1 UNL1     0.0854
     37 C         2.411431   2.487693   -0.13596 C.3        1 UNL1     0.0236
     38 C         1.970669   1.510289   1.056582 C.3        1 UNL1     0.1131
     39 C         2.453265   0.003846   1.056082 C.3        1 UNL1     0.0200
     40 C         2.4171   -0.894445   -0.348982 C.3        1 UNL1     0.0661
     41 C         1.094236   -1.041317   -1.40068 C.3        1 UNL1     0.0091
     42 C         1.040026   -1.265721   -3.2206 C.3        1 UNL1     0.0661
     43 C         3.224573   3.416538   -10.244387 C.2        1 UNL1     0.2131
     44 O         3.433622   4.228406   -11.12751 O.2        1 UNL1     -0.2851
     45 O         5.891999   4.28237   -10.236896 O.3        1 UNL1     -0.5056
     46 O         3.341335   1.278976   -5.064778 O.2        1 UNL1     -0.2836
     47 C         2.418098   -3.10611   -4.574003 C.3        1 UNL1     -0.0566
     48 O         0.048672   -2.367418   -3.16964 O.3        1 UNL1     -0.3909
     49 C         0.076931   0.02378   -1.056946 C.3        1 UNL1     -0.0577
     50 O         3.606303   -0.712498   -1.09088 O.3        1 UNL1     -0.3910
     51 O         4.732765   1.544092   0.237176 O.3        1 UNL1     -0.3753
     52 C         1.557707   2.650545   -1.4358 C.3        1 UNL1     -0.0564
     53 O         0.580186   1.766164   1.559981 O.3        1 UNL1     -0.4608
     54 C         -0.181188   0.88094   2.27735 C.2        1 UNL1     0.3042
     55 O         -1.204035   0.305323   1.908181 O.2        1 UNL1     -0.2512
     56 C         0.374472   0.575693   3.639253 C.3        1 UNL1     0.0332
     57 C         3.768981   -0.081386   1.96151 C.3        1 UNL1     -0.0567
     58 C         4.662241   4.166146   -4.183566 C.3        1 UNL1     0.0210
     59 C         6.097363   1.908257   0.439962 C.3        1 UNL1     0.0372
     60 C         4.31383   2.400379   -1.885112 C.2        1 UNL1     -0.0208
     61 C         5.240148   1.659836   -2.495257 C.2        1 UNL1     0.0882
     62 H         2.560405   -0.974935   -4.722871 H        1 UNL1     0.0365
     63 H         2.711759   -0.691253   -6.739513 H        1 UNL1     0.0576
     64 H         0.522597   -2.248121   -8.249649 H        1 UNL1     0.0615
     65 H         2.733448   -0.246279   -9.178424 H        1 UNL1     0.0622
     66 H         4.292169   3.502031   -0.122718 H        1 UNL1     0.0645
     67 H         2.215267   3.47882   0.308727 H        1 UNL1     0.0362
     68 H         2.504707   1.987471   1.892418 H        1 UNL1     0.0741
     69 H         1.815439   -0.566157   1.718413 H        1 UNL1     0.0359
     70 H         2.50794   -1.913338   0.073707 H        1 UNL1     0.0600
     71 H         0.612303   -1.945585   -0.97997 H        1 UNL1     0.0348
     72 H         2.050945   -1.565226   -2.9081 H        1 UNL1     0.0602
     73 H         3.779448   3.137562   -2.431232 H        1 UNL1     0.0628
     74 H         5.789245   0.845566   -2.021241 H        1 UNL1     0.1022
     75 H         -0.280239   -1.602435   -11.584886 H        1 UNL1     0.0279
     76 H         -0.204488   -0.021854   -12.255204 H        1 UNL1     0.0279
     77 H         0.91932   -1.339064   -12.781809 H        1 UNL1     0.0279
     78 H         0.530931   1.836844   -11.262235 H        1 UNL1     0.1553
     79 H         -0.373428   1.338058   -9.571208 H        1 UNL1     0.1484
     80 H         -1.019872   2.84276   -6.14229 H        1 UNL1     0.0317
     81 H         -0.162102   3.704303   -7.411897 H        1 UNL1     0.0317
     82 H         -1.732313   2.816512   -9.155447 H        1 UNL1     0.0428
     83 H         -2.557762   3.689492   -7.883345 H        1 UNL1     0.0428
     84 H         -2.616332   -0.557097   -7.626065 H        1 UNL1     0.0428
     85 H         -1.806739   0.118506   -8.99619 H        1 UNL1     0.0428
     86 H         -0.377734   -0.618876   -7.088557 H        1 UNL1     0.0317
     87 H         -1.107051   0.464088   -5.994192 H        1 UNL1     0.0317
     88 H         -4.019249   1.900278   -9.393769 H        1 UNL1     0.0429
     89 H         -4.563559   0.617666   -8.309855 H        1 UNL1     0.0429
     90 H         -4.554   2.826387   -6.6099 H        1 UNL1     0.0308
     91 H         -5.364019   3.855276   -9.391997 H        1 UNL1     0.0233
     92 H         -5.633552   4.710081   -7.851817 H        1 UNL1     0.0233
     93 H         -4.006564   4.449114   -8.442925 H        1 UNL1     0.0233
     94 H         -7.035889   2.894775   -7.050691 H        1 UNL1     0.0233
     95 H         -6.761425   1.701868   -8.329742 H        1 UNL1     0.0233
     96 H         -6.366464   1.301715   -6.642177 H        1 UNL1     0.0233
     97 H         7.936165   4.344724   -6.780349 H        1 UNL1     0.0280
     98 H         8.273106   4.115899   -8.47484 H        1 UNL1     0.0280
     99 H         7.349961   5.551644   -7.939891 H        1 UNL1     0.0280
     100 H         6.229641   5.157921   -10.165971 H        1 UNL1     0.2922
     101 H         2.403365   -3.284745   -3.499048 H        1 UNL1     0.0236
     102 H         3.417065   -3.219426   -4.993774 H        1 UNL1     0.0236
     103 H         1.836491   -3.938576   -5.004035 H        1 UNL1     0.0236
     104 H         0.543479   -3.210074   -3.177953 H        1 UNL1     0.2098
     105 H         0.3657   1.030917   -1.346946 H        1 UNL1     0.0234
     106 H         -0.937518   -0.189973   -1.393296 H        1 UNL1     0.0234
     107 H         -0.0   0.0   0.0 H        1 UNL1     0.0234
     108 H         3.632449   0.222294   -1.372391 H        1 UNL1     0.2098
     109 H         1.752268   1.85095   -2.164158 H        1 UNL1     0.0234
     110 H         0.482002   2.713282   -1.239167 H        1 UNL1     0.0234
     111 H         1.788343   3.589493   -1.956502 H        1 UNL1     0.0234
     112 H         -0.27349   -0.140501   4.153605 H        1 UNL1     0.0342
     113 H         1.399344   0.210785   3.591056 H        1 UNL1     0.0342
     114 H         0.379451   1.505776   4.224134 H        1 UNL1     0.0342
     115 H         3.578649   0.252172   2.990927 H        1 UNL1     0.0234
     116 H         4.206728   -1.080136   2.015602 H        1 UNL1     0.0234
     117 H         4.561711   0.621639   1.652841 H        1 UNL1     0.0234
     118 H         5.274227   4.611006   -3.379465 H        1 UNL1     0.0309
     119 H         4.554985   4.892415   -4.995497 H        1 UNL1     0.0309
     120 H         3.671275   4.074768   -3.725589 H        1 UNL1     0.0309
     121 H         6.556383   2.026354   -0.541216 H        1 UNL1     0.0524
     122 H         6.199424   2.868762   0.971988 H        1 UNL1     0.0524
     123 H         6.612543   1.136125   1.004315 H        1 UNL1     0.0524
@<TRIPOS>BOND
     1     1     2    1
     2     1    42    1
     3     2     3    2
     4     3     4    1
     5     4     5    2
     6     5     7    1
     7     6    75    1
     8     6    76    1
     9     6    77    1
    10     7     9   am
    11     9    10    1
    12    10    11    2
    13    10    43    1
    14    11    14    1
    15    11    15    1
    16    12    13   ar
    17    12    27   ar
    18    12    43    1
    19    13    14    1
    20    13    30   ar
    21    14    17    2
    22    15    16    1
    23    16    17    1
    24    16    18    1
    25    16    22    1
    26    18    19    1
    27    19    20    1
    28    20    21    1
    29    21    22    1
    30    23    24    1
    31    23    88    1
    32    23    89    1
    33    24    25    1
    34    24    26    1
    35    24    90    1
    36    25    91    1
    37    25    92    1
    38    25    93    1
    39    26    94    1
    40    26    95    1
    41    26    96    1
    42    27    28   ar
    43    28    29   ar
    44    29    30   ar
    45    29    31    1
    46    30    33    1
    47    31    32    1
    48    32    33    1
    49    32    35    1
    50    34    97    1
    51    34    98    1
    52    34    99    1
    53    35    61    1
    54    36    37    1
    55    36    60    1
    56    37    38    1
    57    38    39    1
    58    39    40    1
    59    40    41    1
    60    41    42    1
    61    45   100    1
    62    47   101    1
    63    47   102    1
    64    47   103    1
    65    48   104    1
    66    49   105    1
    67    49   106    1
    68    49   107    1
    69    50   108    1
    70    51    59    1
    71    52   109    1
    72    52   110    1
    73    52   111    1
    74    53    54    1
    75    54    55    2
    76    54    56    1
    77    56   112    1
    78    56   113    1
    79    56   114    1
    80    57   115    1
    81    57   116    1
    82    57   117    1
    83    58   118    1
    84    58   119    1
    85    58   120    1
    86    59   121    1
    87    59   122    1
    88    59   123    1
    89    60    61    2
    90     1    47    1
    91     1    62    1
    92     2    63    1
    93     3    64    1
    94     4    65    1
    95     5     6    1
    96     7     8    2
    97     9    78    1
    98    15    79    1
    99    18    80    1
   100    18    81    1
   101    19    82    1
   102    19    83    1
   103    20    23    1
   104    21    84    1
   105    21    85    1
   106    22    86    1
   107    22    87    1
   108    27    45    1
   109    28    34    1
   110    32    58    1
   111    33    46    2
   112    36    51    1
   113    36    66    1
   114    37    52    1
   115    37    67    1
   116    38    53    1
   117    38    68    1
   118    42    48    1
   119    42    72    1
   120    43    44    2
   121    60    73    1
   122    61    74    1
   123    39    69    1
   124    39    57    1
   125    40    70    1
   126    40    50    1
   127    41    71    1
   128    41    49    1
