@<TRIPOS>MOLECULE
*****
 123 128 0 0 0
SMALL
GASTEIGER

@<TRIPOS>ATOM
     1 C         -2.462882   -3.262265   -0.580646 C.3        1 UNL1     0.0009
     2 C         -2.219334   -4.682735   -1.746831 C.2        1 UNL1     -0.0787
     3 C         -2.454997   -5.308084   -3.03114 C.2        1 UNL1     -0.0649
     4 C         -1.786513   -6.744784   -3.627276 C.2        1 UNL1     -0.0542
     5 C         -1.5072   -7.499103   -4.793494 C.2        1 UNL1     0.0115
     6 C         -1.770192   -7.593992   -6.321615 C.3        1 UNL1     -0.0348
     7 C         -0.422629   -8.679919   -4.713697 C.2        1 UNL1     0.2441
     8 O         -0.729812   -9.862082   -4.645459 O.2        1 UNL1     -0.2702
     9 N         0.898238   -8.286089   -4.990032 N.am        1 UNL1     -0.2772
     10 C         1.521694   -7.856799   -3.840974 C.2        1 UNL1     0.1049
     11 C         1.292059   -6.605338   -3.486946 C.2        1 UNL1     0.0801
     12 C         1.948368   -8.492704   -1.459607 C.ar        1 UNL1     0.0753
     13 C         1.488912   -7.183121   -1.109604 C.ar        1 UNL1     0.0305
     14 C         1.270799   -6.152701   -2.122379 C.2        1 UNL1     0.0924
     15 N         0.713342   -5.605562   -4.174014 N.pl3        1 UNL1     -0.3170
     16 C         0.863519   -4.399092   -3.404514 C.3        1 UNL1     0.1275
     17 N         0.946376   -4.871482   -1.973533 N.2        1 UNL1     -0.2557
     18 C         2.233858   -3.817417   -3.738469 C.3        1 UNL1     0.0016
     19 C         2.323895   -3.617722   -5.242997 C.3        1 UNL1     0.0026
     20 N         1.257097   -2.718307   -5.660159 N.3        1 UNL1     -0.3018
     21 C         -0.097476   -3.163531   -5.32658 C.3        1 UNL1     0.0026
     22 C         -0.166687   -3.353363   -3.810312 C.3        1 UNL1     0.0016
     23 C         1.430296   -2.227043   -7.012677 C.3        1 UNL1     0.0012
     24 C         2.72645   -2.780888   -7.625047 C.3        1 UNL1     -0.0339
     25 C         2.433675   -3.863134   -8.677227 C.3        1 UNL1     -0.0615
     26 C         3.554497   -1.647228   -8.204645 C.3        1 UNL1     -0.0615
     27 C         2.269327   -9.430472   -0.480988 C.ar        1 UNL1     0.1347
     28 C         2.209121   -9.162211   0.874911 C.ar        1 UNL1     0.0342
     29 C         1.707574   -7.883011   1.196255 C.ar        1 UNL1     0.1435
     30 C         1.347818   -6.945883   0.226931 C.ar        1 UNL1     0.0774
     31 O         1.691934   -7.431565   2.469424 O.3        1 UNL1     -0.4436
     32 C         1.583817   -6.005298   2.347169 C.3        1 UNL1     0.3143
     33 C         0.968699   -5.770178   0.982412 C.2        1 UNL1     0.2504
     34 C         2.772562   -10.024266   1.970125 C.3        1 UNL1     -0.0327
     35 O         0.625734   -5.565965   3.317899 O.2        1 UNL1     -0.4528
     36 C         1.673853   -2.051882   4.298078 C.3        1 UNL1     0.0854
     37 C         1.875322   -0.781283   3.385657 C.3        1 UNL1     0.0236
     38 C         1.028129   0.507499   3.825031 C.3        1 UNL1     0.1131
     39 C         -0.526498   0.373905   4.08495 C.3        1 UNL1     0.0200
     40 C         -1.484865   -0.506997   3.041886 C.3        1 UNL1     0.0661
     41 C         -1.512139   -0.358262   1.352287 C.3        1 UNL1     0.0091
     42 C         -1.822802   -1.614456   0.051953 C.3        1 UNL1     0.0661
     43 C         2.157234   -8.789652   -2.898515 C.2        1 UNL1     0.2131
     44 O         2.887173   -9.67604   -3.303783 O.2        1 UNL1     -0.2851
     45 O         2.665185   -10.696924   -0.906234 O.3        1 UNL1     -0.5056
     46 O         0.297899   -4.83383   0.609405 O.2        1 UNL1     -0.2836
     47 C         -3.896468   -3.292639   0.014241 C.3        1 UNL1     -0.0566
     48 O         -2.780854   -0.766786   -0.698185 O.3        1 UNL1     -0.3909
     49 C         -0.306325   0.442257   0.913342 C.3        1 UNL1     -0.0577
     50 O         -1.499578   -1.872344   3.407033 O.3        1 UNL1     -0.3910
     51 O         0.656538   -1.957702   5.269485 O.3        1 UNL1     -0.3753
     52 C         2.080145   -1.169287   1.88484 C.3        1 UNL1     -0.0564
     53 O         1.490127   1.779604   3.176468 O.3        1 UNL1     -0.4608
     54 C         1.373433   3.034441   3.714702 C.2        1 UNL1     0.3042
     55 O         1.904389   3.459707   4.739921 O.2        1 UNL1     -0.2512
     56 C         0.535828   3.967968   2.887866 C.3        1 UNL1     0.0332
     57 C         -0.73575   0.153486   5.655238 C.3        1 UNL1     -0.0567
     58 C         3.029317   -5.455707   2.344255 C.3        1 UNL1     0.0210
     59 C         0.848736   -2.779055   6.420269 C.3        1 UNL1     0.0372
     60 C         1.447656   -3.325372   3.561722 C.2        1 UNL1     -0.0208
     61 C         0.561073   -4.299413   3.771385 C.2        1 UNL1     0.0882
     62 H         -1.813117   -3.769591   0.142636 H        1 UNL1     0.0365
     63 H         -1.65806   -5.372516   -1.113078 H        1 UNL1     0.0576
     64 H         -2.991748   -4.791036   -3.829681 H        1 UNL1     0.0615
     65 H         -1.348516   -7.215119   -2.742727 H        1 UNL1     0.0622
     66 H         2.633698   -2.171956   4.819926 H        1 UNL1     0.0645
     67 H         2.905591   -0.452693   3.607319 H        1 UNL1     0.0362
     68 H         1.474449   0.692619   4.813995 H        1 UNL1     0.0741
     69 H         -0.972399   1.358664   4.042175 H        1 UNL1     0.0359
     70 H         -2.48325   -0.131042   3.336755 H        1 UNL1     0.0600
     71 H         -2.322082   0.388509   1.23704 H        1 UNL1     0.0348
     72 H         -2.235382   -2.032109   0.981823 H        1 UNL1     0.0602
     73 H         2.2188   -3.455281   2.843593 H        1 UNL1     0.0628
     74 H         -0.292103   -4.221936   4.446163 H        1 UNL1     0.1022
     75 H         -2.32858   -8.529697   -6.565936 H        1 UNL1     0.0279
     76 H         -2.404475   -6.823134   -6.753508 H        1 UNL1     0.0279
     77 H         -0.847704   -7.733687   -6.904027 H        1 UNL1     0.0279
     78 H         0.892929   -7.506988   -5.645051 H        1 UNL1     0.1553
     79 H         0.606508   -5.604308   -5.17177 H        1 UNL1     0.1484
     80 H         2.361   -2.870271   -3.200402 H        1 UNL1     0.0317
     81 H         3.034789   -4.481886   -3.396942 H        1 UNL1     0.0317
     82 H         2.27009   -4.573636   -5.784518 H        1 UNL1     0.0428
     83 H         3.30934   -3.204003   -5.459297 H        1 UNL1     0.0428
     84 H         -0.87351   -2.434191   -5.578864 H        1 UNL1     0.0428
     85 H         -0.382764   -4.062459   -5.890367 H        1 UNL1     0.0428
     86 H         -1.199828   -3.548205   -3.589759 H        1 UNL1     0.0317
     87 H         0.025366   -2.399446   -3.304096 H        1 UNL1     0.0317
     88 H         0.581736   -2.577574   -7.614647 H        1 UNL1     0.0429
     89 H         1.415034   -1.129959   -7.043458 H        1 UNL1     0.0429
     90 H         3.338829   -3.223136   -6.8303 H        1 UNL1     0.0308
     91 H         2.54283   -3.470522   -9.69263 H        1 UNL1     0.0233
     92 H         3.102601   -4.717389   -8.549182 H        1 UNL1     0.0233
     93 H         1.413867   -4.258591   -8.596977 H        1 UNL1     0.0233
     94 H         4.51348   -2.029083   -8.571215 H        1 UNL1     0.0233
     95 H         3.027593   -1.193278   -9.048603 H        1 UNL1     0.0233
     96 H         3.753345   -0.87515   -7.456098 H        1 UNL1     0.0233
     97 H         2.702394   -9.545563   2.942313 H        1 UNL1     0.0280
     98 H         2.235235   -10.976937   2.06475 H        1 UNL1     0.0280
     99 H         3.834861   -10.234802   1.764478 H        1 UNL1     0.0280
     100 H         2.274074   -10.978517   -1.714541 H        1 UNL1     0.2922
     101 H         -4.628337   -3.334664   -0.792144 H        1 UNL1     0.0236
     102 H         -4.092598   -2.470873   0.702148 H        1 UNL1     0.0236
     103 H         -4.079861   -4.204705   0.606437 H        1 UNL1     0.0236
     104 H         -2.608974   -0.899668   -1.650955 H        1 UNL1     0.2098
     105 H         -0.510022   1.492908   0.72242 H        1 UNL1     0.0234
     106 H         0.568087   0.337599   1.555509 H        1 UNL1     0.0234
     107 H         0.0   0.0   0.0 H        1 UNL1     0.0234
     108 H         -2.153863   -1.973602   4.124964 H        1 UNL1     0.2098
     109 H         1.479067   -2.042505   1.595174 H        1 UNL1     0.0234
     110 H         1.880498   -0.341988   1.195304 H        1 UNL1     0.0234
     111 H         3.122814   -1.443803   1.676445 H        1 UNL1     0.0234
     112 H         1.046106   4.930016   2.780976 H        1 UNL1     0.0342
     113 H         0.291005   3.545297   1.914595 H        1 UNL1     0.0342
     114 H         -0.408442   4.144996   3.42095 H        1 UNL1     0.0342
     115 H         -1.079881   -0.864922   5.882409 H        1 UNL1     0.0234
     116 H         0.159165   0.3386   6.252656 H        1 UNL1     0.0234
     117 H         -1.558186   0.755653   6.078246 H        1 UNL1     0.0234
     118 H         3.290528   -4.971046   3.30127 H        1 UNL1     0.0309
     119 H         3.778811   -6.219304   2.113208 H        1 UNL1     0.0309
     120 H         3.173764   -4.656719   1.608824 H        1 UNL1     0.0309
     121 H         0.77572   -3.817946   6.099751 H        1 UNL1     0.0524
     122 H         1.845213   -2.640174   6.871693 H        1 UNL1     0.0524
     123 H         0.090083   -2.56302   7.167175 H        1 UNL1     0.0524
@<TRIPOS>BOND
     1     1     2    1
     2     1    42    1
     3     2     3    2
     4     3     4    1
     5     4     5    2
     6     5     7    1
     7     6    75    1
     8     6    76    1
     9     6    77    1
    10     7     9   am
    11     9    10    1
    12    10    11    2
    13    10    43    1
    14    11    14    1
    15    11    15    1
    16    12    13   ar
    17    12    27   ar
    18    12    43    1
    19    13    14    1
    20    13    30   ar
    21    14    17    2
    22    15    16    1
    23    16    17    1
    24    16    18    1
    25    16    22    1
    26    18    19    1
    27    19    20    1
    28    20    21    1
    29    21    22    1
    30    23    24    1
    31    23    88    1
    32    23    89    1
    33    24    25    1
    34    24    26    1
    35    24    90    1
    36    25    91    1
    37    25    92    1
    38    25    93    1
    39    26    94    1
    40    26    95    1
    41    26    96    1
    42    27    28   ar
    43    28    29   ar
    44    29    30   ar
    45    29    31    1
    46    30    33    1
    47    31    32    1
    48    32    33    1
    49    32    35    1
    50    34    97    1
    51    34    98    1
    52    34    99    1
    53    35    61    1
    54    36    37    1
    55    36    60    1
    56    37    38    1
    57    38    39    1
    58    39    40    1
    59    40    41    1
    60    41    42    1
    61    45   100    1
    62    47   101    1
    63    47   102    1
    64    47   103    1
    65    48   104    1
    66    49   105    1
    67    49   106    1
    68    49   107    1
    69    50   108    1
    70    51    59    1
    71    52   109    1
    72    52   110    1
    73    52   111    1
    74    53    54    1
    75    54    55    2
    76    54    56    1
    77    56   112    1
    78    56   113    1
    79    56   114    1
    80    57   115    1
    81    57   116    1
    82    57   117    1
    83    58   118    1
    84    58   119    1
    85    58   120    1
    86    59   121    1
    87    59   122    1
    88    59   123    1
    89    60    61    2
    90     1    47    1
    91     1    62    1
    92     2    63    1
    93     3    64    1
    94     4    65    1
    95     5     6    1
    96     7     8    2
    97     9    78    1
    98    15    79    1
    99    18    80    1
   100    18    81    1
   101    19    82    1
   102    19    83    1
   103    20    23    1
   104    21    84    1
   105    21    85    1
   106    22    86    1
   107    22    87    1
   108    27    45    1
   109    28    34    1
   110    32    58    1
   111    33    46    2
   112    36    51    1
   113    36    66    1
   114    37    52    1
   115    37    67    1
   116    38    53    1
   117    38    68    1
   118    42    48    1
   119    42    72    1
   120    43    44    2
   121    60    73    1
   122    61    74    1
   123    39    69    1
   124    39    57    1
   125    40    70    1
   126    40    50    1
   127    41    71    1
   128    41    49    1
