@<TRIPOS>MOLECULE
*****
 123 128 0 0 0
SMALL
GASTEIGER

@<TRIPOS>ATOM
     1 C         1.015305   0.841355   -3.983336 C.3        1 UNL1     0.0009
     2 C         1.098455   2.505455   -4.796291 C.2        1 UNL1     -0.0787
     3 C         0.525168   3.505521   -5.672223 C.2        1 UNL1     -0.0649
     4 C         1.086471   5.075319   -5.967233 C.2        1 UNL1     -0.0542
     5 C         0.735816   6.364108   -6.439613 C.2        1 UNL1     0.0115
     6 C         -0.370709   7.178709   -7.164423 C.3        1 UNL1     -0.0348
     7 C         1.675049   7.610916   -6.065044 C.2        1 UNL1     0.2441
     8 O         2.472421   8.103233   -6.851394 O.2        1 UNL1     -0.2702
     9 N         1.337049   8.263914   -4.86692 N.am        1 UNL1     -0.2772
     10 C         1.975176   7.672295   -3.801039 C.2        1 UNL1     0.1049
     11 C         1.396572   6.595589   -3.300894 C.2        1 UNL1     0.0801
     12 C         4.215594   6.876719   -3.023274 C.ar        1 UNL1     0.0753
     13 C         3.573687   5.642085   -2.688247 C.ar        1 UNL1     0.0305
     14 C         2.118519   5.509829   -2.694847 C.2        1 UNL1     0.0924
     15 N         0.170493   6.091705   -3.523063 N.pl3        1 UNL1     -0.3170
     16 C         -0.031096   5.004315   -2.602628 C.3        1 UNL1     0.1275
     17 N         1.357716   4.484737   -2.321626 N.2        1 UNL1     -0.2557
     18 C         -0.530738   5.607068   -1.293144 C.3        1 UNL1     0.0016
     19 C         -1.778943   6.426415   -1.579925 C.3        1 UNL1     0.0026
     20 N         -2.784211   5.555378   -2.173019 N.3        1 UNL1     -0.3018
     21 C         -2.372892   4.880588   -3.405839 C.3        1 UNL1     0.0026
     22 C         -1.120368   4.059866   -3.093596 C.3        1 UNL1     0.0016
     23 C         -4.102029   6.157649   -2.208667 C.3        1 UNL1     0.0012
     24 C         -4.542013   6.574687   -0.796488 C.3        1 UNL1     -0.0339
     25 C         -4.795884   8.088704   -0.710708 C.3        1 UNL1     -0.0615
     26 C         -5.764717   5.778123   -0.375465 C.3        1 UNL1     -0.0615
     27 C         5.594302   7.030535   -2.898279 C.ar        1 UNL1     0.1347
     28 C         6.427024   6.037871   -2.413262 C.ar        1 UNL1     0.0342
     29 C         5.779559   4.815123   -2.136062 C.ar        1 UNL1     0.1435
     30 C         4.404488   4.634953   -2.290791 C.ar        1 UNL1     0.0774
     31 O         6.434437   3.787118   -1.553527 O.3        1 UNL1     -0.4436
     32 C         5.396415   2.95457   -1.014783 C.3        1 UNL1     0.3143
     33 C         4.161604   3.284242   -1.828891 C.2        1 UNL1     0.2504
     34 C         7.866648   6.210733   -2.016145 C.3        1 UNL1     -0.0327
     35 O         5.742129   1.596262   -1.312665 O.2        1 UNL1     -0.4528
     36 C         4.270111   -0.491854   1.494651 C.3        1 UNL1     0.0854
     37 C         2.772822   -0.595995   1.979214 C.3        1 UNL1     0.0236
     38 C         2.174084   -2.083393   2.009271 C.3        1 UNL1     0.1131
     39 C         2.306473   -3.008979   0.733328 C.3        1 UNL1     0.0200
     40 C         2.011805   -2.395616   -0.789628 C.3        1 UNL1     0.0661
     41 C         0.647258   -1.501012   -1.253642 C.3        1 UNL1     0.0091
     42 C         0.468807   -0.158566   -2.491138 C.3        1 UNL1     0.0661
     43 C         3.353909   8.016811   -3.423208 C.2        1 UNL1     0.2131
     44 O         3.702761   9.181311   -3.352638 O.2        1 UNL1     -0.2851
     45 O         6.145469   8.249205   -3.288786 O.3        1 UNL1     -0.5056
     46 O         3.20329   2.582082   -2.062258 O.2        1 UNL1     -0.2836
     47 C         1.34226   -0.276941   -5.009248 C.3        1 UNL1     -0.0566
     48 O         -0.741181   -0.742755   -3.118648 O.3        1 UNL1     -0.3909
     49 C         -0.090435   -1.056092   -0.010521 C.3        1 UNL1     -0.0577
     50 O         3.179761   -1.809871   -1.328613 O.3        1 UNL1     -0.3910
     51 O         4.837166   -1.678379   0.986676 O.3        1 UNL1     -0.3753
     52 C         1.924186   0.632422   1.514715 C.3        1 UNL1     -0.0564
     53 O         0.898348   -2.201572   2.790846 O.3        1 UNL1     -0.4608
     54 C         0.018226   -1.180072   3.035493 C.2        1 UNL1     0.3042
     55 O         -0.512188   -0.891901   4.10762 O.2        1 UNL1     -0.2512
     56 C         -0.248404   -0.315754   1.836086 C.3        1 UNL1     0.0332
     57 C         3.606002   -3.920152   0.931228 C.3        1 UNL1     -0.0567
     58 C         5.172786   3.422021   0.442272 C.3        1 UNL1     0.0210
     59 C         6.255503   -1.647454   0.834273 C.3        1 UNL1     0.0372
     60 C         4.533165   0.574067   0.489775 C.2        1 UNL1     -0.0208
     61 C         5.243939   0.542217   -0.63829 C.2        1 UNL1     0.0882
     62 H         1.952111   1.07082   -3.461366 H        1 UNL1     0.0365
     63 H         2.079495   2.847495   -4.460079 H        1 UNL1     0.0576
     64 H         -0.463444   3.376619   -6.118471 H        1 UNL1     0.0615
     65 H         2.099267   5.071664   -5.555269 H        1 UNL1     0.0622
     66 H         4.831892   -0.203219   2.394172 H        1 UNL1     0.0645
     67 H         2.822285   -0.357517   3.055895 H        1 UNL1     0.0362
     68 H         2.835609   -2.532723   2.765585 H        1 UNL1     0.0741
     69 H         1.58516   -3.811689   0.809309 H        1 UNL1     0.0359
     70 H         1.8895   -3.339322   -1.35489 H        1 UNL1     0.0600
     71 H         -0.007157   -2.319187   -1.613208 H        1 UNL1     0.0348
     72 H         1.398985   -0.685986   -2.747872 H        1 UNL1     0.0602
     73 H         4.155367   1.497411   0.853028 H        1 UNL1     0.0628
     74 H         5.615809   -0.369365   -1.107299 H        1 UNL1     0.1022
     75 H         -1.348373   7.068271   -6.63621 H        1 UNL1     0.0279
     76 H         -0.239571   8.258131   -7.191269 H        1 UNL1     0.0279
     77 H         -0.614272   6.774791   -8.158017 H        1 UNL1     0.0279
     78 H         0.335038   8.185922   -4.705772 H        1 UNL1     0.1553
     79 H         -0.587227   6.621637   -3.912889 H        1 UNL1     0.1484
     80 H         -0.737517   4.797462   -0.58283 H        1 UNL1     0.0317
     81 H         0.238112   6.237898   -0.83426 H        1 UNL1     0.0317
     82 H         -1.561928   7.283417   -2.23442 H        1 UNL1     0.0428
     83 H         -2.117392   6.848497   -0.633168 H        1 UNL1     0.0428
     84 H         -3.115141   4.172236   -3.78678 H        1 UNL1     0.0428
     85 H         -2.232243   5.590197   -4.232875 H        1 UNL1     0.0428
     86 H         -0.926991   3.479397   -3.976573 H        1 UNL1     0.0317
     87 H         -1.34917   3.300599   -2.335797 H        1 UNL1     0.0317
     88 H         -4.050203   7.05569   -2.838057 H        1 UNL1     0.0429
     89 H         -4.836012   5.48398   -2.669332 H        1 UNL1     0.0429
     90 H         -3.7528   6.31194   -0.082122 H        1 UNL1     0.0308
     91 H         -5.656704   8.382718   -1.318694 H        1 UNL1     0.0233
     92 H         -4.966932   8.393676   0.324349 H        1 UNL1     0.0233
     93 H         -3.940426   8.67635   -1.065249 H        1 UNL1     0.0233
     94 H         -6.616814   6.026646   -1.017339 H        1 UNL1     0.0233
     95 H         -5.566568   4.707498   -0.477746 H        1 UNL1     0.0233
     96 H         -6.04038   5.988585   0.661687 H        1 UNL1     0.0233
     97 H         8.282591   5.304117   -1.586878 H        1 UNL1     0.0280
     98 H         8.505753   6.457772   -2.873917 H        1 UNL1     0.0280
     99 H         7.949024   7.016467   -1.268413 H        1 UNL1     0.0280
     100 H         5.515632   8.928241   -3.455631 H        1 UNL1     0.2922
     101 H         2.181461   -0.871943   -4.649566 H        1 UNL1     0.0236
     102 H         1.511415   0.10171   -6.016717 H        1 UNL1     0.0236
     103 H         0.513686   -0.996979   -5.115099 H        1 UNL1     0.0236
     104 H         -0.874745   -0.293665   -3.976231 H        1 UNL1     0.2098
     105 H         -1.149969   -1.299356   -0.005798 H        1 UNL1     0.0234
     106 H         0.3718   -1.362931   0.927624 H        1 UNL1     0.0234
     107 H         0.0   0.0   0.0 H        1 UNL1     0.0234
     108 H         3.940035   -2.168144   -0.831228 H        1 UNL1     0.2098
     109 H         2.084565   0.871685   0.454175 H        1 UNL1     0.0234
     110 H         0.8523   0.511751   1.705084 H        1 UNL1     0.0234
     111 H         2.192147   1.542095   2.068465 H        1 UNL1     0.0234
     112 H         0.015864   0.72236   2.059306 H        1 UNL1     0.0342
     113 H         0.276598   -0.670821   0.950567 H        1 UNL1     0.0342
     114 H         -1.32527   -0.350321   1.620843 H        1 UNL1     0.0342
     115 H         3.652945   -4.730839   0.191111 H        1 UNL1     0.0234
     116 H         4.547073   -3.369436   0.875145 H        1 UNL1     0.0234
     117 H         3.60224   -4.492825   1.874611 H        1 UNL1     0.0234
     118 H         6.111823   3.750754   0.920968 H        1 UNL1     0.0309
     119 H         4.428588   4.220159   0.527983 H        1 UNL1     0.0309
     120 H         4.826393   2.613094   1.094771 H        1 UNL1     0.0309
     121 H         6.480083   -1.87242   -0.207989 H        1 UNL1     0.0524
     122 H         6.678772   -0.654091   1.058128 H        1 UNL1     0.0524
     123 H         6.719564   -2.383223   1.484954 H        1 UNL1     0.0524
@<TRIPOS>BOND
     1     1     2    1
     2     1    42    1
     3     2     3    2
     4     3     4    1
     5     4     5    2
     6     5     7    1
     7     6    75    1
     8     6    76    1
     9     6    77    1
    10     7     9   am
    11     9    10    1
    12    10    11    2
    13    10    43    1
    14    11    14    1
    15    11    15    1
    16    12    13   ar
    17    12    27   ar
    18    12    43    1
    19    13    14    1
    20    13    30   ar
    21    14    17    2
    22    15    16    1
    23    16    17    1
    24    16    18    1
    25    16    22    1
    26    18    19    1
    27    19    20    1
    28    20    21    1
    29    21    22    1
    30    23    24    1
    31    23    88    1
    32    23    89    1
    33    24    25    1
    34    24    26    1
    35    24    90    1
    36    25    91    1
    37    25    92    1
    38    25    93    1
    39    26    94    1
    40    26    95    1
    41    26    96    1
    42    27    28   ar
    43    28    29   ar
    44    29    30   ar
    45    29    31    1
    46    30    33    1
    47    31    32    1
    48    32    33    1
    49    32    35    1
    50    34    97    1
    51    34    98    1
    52    34    99    1
    53    35    61    1
    54    36    37    1
    55    36    60    1
    56    37    38    1
    57    38    39    1
    58    39    40    1
    59    40    41    1
    60    41    42    1
    61    45   100    1
    62    47   101    1
    63    47   102    1
    64    47   103    1
    65    48   104    1
    66    49   105    1
    67    49   106    1
    68    49   107    1
    69    50   108    1
    70    51    59    1
    71    52   109    1
    72    52   110    1
    73    52   111    1
    74    53    54    1
    75    54    55    2
    76    54    56    1
    77    56   112    1
    78    56   113    1
    79    56   114    1
    80    57   115    1
    81    57   116    1
    82    57   117    1
    83    58   118    1
    84    58   119    1
    85    58   120    1
    86    59   121    1
    87    59   122    1
    88    59   123    1
    89    60    61    2
    90     1    47    1
    91     1    62    1
    92     2    63    1
    93     3    64    1
    94     4    65    1
    95     5     6    1
    96     7     8    2
    97     9    78    1
    98    15    79    1
    99    18    80    1
   100    18    81    1
   101    19    82    1
   102    19    83    1
   103    20    23    1
   104    21    84    1
   105    21    85    1
   106    22    86    1
   107    22    87    1
   108    27    45    1
   109    28    34    1
   110    32    58    1
   111    33    46    2
   112    36    51    1
   113    36    66    1
   114    37    52    1
   115    37    67    1
   116    38    53    1
   117    38    68    1
   118    42    48    1
   119    42    72    1
   120    43    44    2
   121    60    73    1
   122    61    74    1
   123    39    69    1
   124    39    57    1
   125    40    70    1
   126    40    50    1
   127    41    71    1
   128    41    49    1
