@<TRIPOS>MOLECULE
*****
 123 128 0 0 0
SMALL
GASTEIGER

@<TRIPOS>ATOM
     1 C         5.019945   2.15178   0.42654 C.3        1 UNL1     0.0009
     2 C         6.406982   2.998402   -0.465871 C.2        1 UNL1     -0.0787
     3 C         7.707708   2.949746   -1.099741 C.2        1 UNL1     -0.0649
     4 C         8.500969   4.18476   -1.943444 C.2        1 UNL1     -0.0542
     5 C         9.515857   4.480067   -2.886775 C.2        1 UNL1     0.0115
     6 C         10.710197   3.878504   -3.677343 C.3        1 UNL1     -0.0348
     7 C         9.506438   5.910191   -3.615916 C.2        1 UNL1     0.2441
     8 O         10.253059   6.825014   -3.296257 O.2        1 UNL1     -0.2702
     9 N         8.769444   5.956592   -4.812093 N.am        1 UNL1     -0.2772
     10 C         7.453003   6.262247   -4.553481 C.2        1 UNL1     0.1049
     11 C         6.680984   5.252926   -4.193648 C.2        1 UNL1     0.0801
     12 C         5.998021   7.870024   -3.306319 C.ar        1 UNL1     0.0753
     13 C         5.321323   6.725363   -2.776754 C.ar        1 UNL1     0.0305
     14 C         5.557138   5.384144   -3.306445 C.2        1 UNL1     0.0924
     15 N         6.913045   3.929743   -4.236801 N.pl3        1 UNL1     -0.3170
     16 C         5.688166   3.257386   -3.893491 C.3        1 UNL1     0.1275
     17 N         4.954921   4.236159   -3.009139 N.2        1 UNL1     -0.2557
     18 C         4.862876   3.14075   -5.171377 C.3        1 UNL1     0.0016
     19 C         5.69598   2.428485   -6.22504 C.3        1 UNL1     0.0026
     20 N         6.066331   1.114145   -5.7187 N.3        1 UNL1     -0.3018
     21 C         6.811101   1.120815   -4.45789 C.3        1 UNL1     0.0026
     22 C         5.953878   1.83688   -3.412751 C.3        1 UNL1     0.0016
     23 C         6.600519   0.243628   -6.747042 C.3        1 UNL1     0.0012
     24 C         7.70419   0.96102   -7.540147 C.3        1 UNL1     -0.0339
     25 C         7.709574   0.526812   -9.015101 C.3        1 UNL1     -0.0615
     26 C         7.551336   2.465692   -7.40094 C.3        1 UNL1     -0.0615
     27 C         5.680272   9.157491   -2.880194 C.ar        1 UNL1     0.1347
     28 C         4.68073   9.427291   -1.962494 C.ar        1 UNL1     0.0342
     29 C         4.06155   8.281915   -1.418534 C.ar        1 UNL1     0.1435
     30 C         4.394383   6.984277   -1.809148 C.ar        1 UNL1     0.0774
     31 O         2.995293   8.381208   -0.594979 O.3        1 UNL1     -0.4436
     32 C         2.377907   7.086073   -0.643273 C.3        1 UNL1     0.3143
     33 C         3.479378   6.137895   -1.072148 C.2        1 UNL1     0.2504
     34 C         4.116077   10.784463   -1.647291 C.3        1 UNL1     -0.0327
     35 O         2.022874   6.733088   0.699339 O.2        1 UNL1     -0.4528
     36 C         -1.045362   4.516413   0.415848 C.3        1 UNL1     0.0854
     37 C         -1.228084   3.164473   -0.375602 C.3        1 UNL1     0.0236
     38 C         -1.744089   1.929017   0.507084 C.3        1 UNL1     0.1131
     39 C         -1.008617   1.569822   1.860719 C.3        1 UNL1     0.0200
     40 C         0.65749   1.564218   1.941307 C.3        1 UNL1     0.0661
     41 C         1.702067   0.7811   0.858166 C.3        1 UNL1     0.0091
     42 C         3.387852   1.23326   0.293292 C.3        1 UNL1     0.0661
     43 C         6.987364   7.647433   -4.389791 C.2        1 UNL1     0.2131
     44 O         7.33078   8.511846   -5.175663 O.2        1 UNL1     -0.2851
     45 O         6.417662   10.213393   -3.411951 O.3        1 UNL1     -0.5056
     46 O         3.588429   4.954855   -0.838958 O.2        1 UNL1     -0.2836
     47 C         5.415886   1.877932   1.902419 C.3        1 UNL1     -0.0566
     48 O         3.945698   -0.124745   0.502452 O.3        1 UNL1     -0.3909
     49 C         0.918112   0.378294   -0.370922 C.3        1 UNL1     -0.0577
     50 O         1.149202   2.855564   2.238572 O.3        1 UNL1     -0.3910
     51 O         -1.186139   4.434361   1.816162 O.3        1 UNL1     -0.3753
     52 C         -0.147699   2.993841   -1.49301 C.3        1 UNL1     -0.0564
     53 O         -2.24073   0.772695   -0.310592 O.3        1 UNL1     -0.4608
     54 C         -2.065248   -0.551386   -0.004089 C.2        1 UNL1     0.3042
     55 O         -1.257779   -1.333223   -0.504651 O.2        1 UNL1     -0.2512
     56 C         -2.946878   -1.032004   1.113251 C.3        1 UNL1     0.0332
     57 C         -1.809842   2.280973   3.048354 C.3        1 UNL1     -0.0567
     58 C         1.312002   7.151052   -1.761823 C.3        1 UNL1     0.0210
     59 C         -2.38123   5.017343   2.333611 C.3        1 UNL1     0.0372
     60 C         0.234119   5.230286   0.154172 C.2        1 UNL1     -0.0208
     61 C         1.088958   5.809761   0.998094 C.2        1 UNL1     0.0882
     62 H         4.465027   3.097695   0.421756 H        1 UNL1     0.0365
     63 H         6.055029   4.032078   -0.455198 H        1 UNL1     0.0576
     64 H         8.246141   2.00835   -1.230007 H        1 UNL1     0.0615
     65 H         7.934403   5.083182   -1.683975 H        1 UNL1     0.0622
     66 H         -1.839876   5.171126   0.030951 H        1 UNL1     0.0645
     67 H         -2.101172   3.34996   -1.025119 H        1 UNL1     0.0362
     68 H         -2.730934   2.315092   0.80475 H        1 UNL1     0.0741
     69 H         -1.262748   0.554966   2.136206 H        1 UNL1     0.0359
     70 H         0.801196   0.991281   2.877337 H        1 UNL1     0.0600
     71 H         1.817177   -0.19378   1.371308 H        1 UNL1     0.0348
     72 H         3.22062   1.791477   1.225892 H        1 UNL1     0.0602
     73 H         0.359883   5.349045   -0.893363 H        1 UNL1     0.0628
     74 H         1.063495   5.68865   2.08157 H        1 UNL1     0.1022
     75 H         11.386099   4.688713   -4.043064 H        1 UNL1     0.0279
     76 H         11.39057   3.240749   -3.117495 H        1 UNL1     0.0279
     77 H         10.40129   3.410336   -4.623438 H        1 UNL1     0.0279
     78 H         8.789324   5.043623   -5.261725 H        1 UNL1     0.1553
     79 H         7.624515   3.507272   -4.804482 H        1 UNL1     0.1484
     80 H         3.939644   2.591025   -4.951808 H        1 UNL1     0.0317
     81 H         4.560514   4.129234   -5.533492 H        1 UNL1     0.0317
     82 H         6.586723   3.011297   -6.5022 H        1 UNL1     0.0428
     83 H         5.089265   2.357625   -7.128326 H        1 UNL1     0.0428
     84 H         7.007153   0.1207   -4.05896 H        1 UNL1     0.0428
     85 H         7.81063   1.561652   -4.575876 H        1 UNL1     0.0428
     86 H         6.467458   1.706358   -2.478306 H        1 UNL1     0.0317
     87 H         5.013084   1.293101   -3.263397 H        1 UNL1     0.0317
     88 H         7.03793   -0.635862   -6.256672 H        1 UNL1     0.0429
     89 H         5.807441   -0.120526   -7.41277 H        1 UNL1     0.0429
     90 H         8.678676   0.71703   -7.100762 H        1 UNL1     0.0308
     91 H         6.698209   0.5238   -9.432513 H        1 UNL1     0.0233
     92 H         8.341392   1.189905   -9.610688 H        1 UNL1     0.0233
     93 H         8.113007   -0.483875   -9.151443 H        1 UNL1     0.0233
     94 H         8.05184   2.974651   -8.231779 H        1 UNL1     0.0233
     95 H         6.492454   2.737747   -7.427714 H        1 UNL1     0.0233
     96 H         7.984723   2.8258   -6.463675 H        1 UNL1     0.0233
     97 H         4.760164   11.348666   -0.979417 H        1 UNL1     0.0280
     98 H         3.999769   11.40334   -2.546579 H        1 UNL1     0.0280
     99 H         3.131637   10.671523   -1.164363 H        1 UNL1     0.0280
     100 H         6.274978   10.367728   -4.329253 H        1 UNL1     0.2922
     101 H         4.910904   2.588477   2.556464 H        1 UNL1     0.0236
     102 H         6.493505   1.869108   2.062558 H        1 UNL1     0.0236
     103 H         5.072546   0.888008   2.246456 H        1 UNL1     0.0236
     104 H         4.919827   -0.049931   0.481336 H        1 UNL1     0.2098
     105 H         0.691019   1.198362   -1.047478 H        1 UNL1     0.0234
     106 H         1.337826   -0.462173   -0.923536 H        1 UNL1     0.0234
     107 H         0.0   -0.0   0.0 H        1 UNL1     0.0234
     108 H         2.117244   2.780331   2.343466 H        1 UNL1     0.2098
     109 H         -0.194231   3.796125   -2.242602 H        1 UNL1     0.0234
     110 H         0.87144   2.919578   -1.098567 H        1 UNL1     0.0234
     111 H         -0.28627   2.057865   -2.050409 H        1 UNL1     0.0234
     112 H         -2.742745   -2.086768   1.320975 H        1 UNL1     0.0342
     113 H         -2.834617   -0.427894   2.012301 H        1 UNL1     0.0342
     114 H         -3.992219   -0.949543   0.785187 H        1 UNL1     0.0342
     115 H         -1.207586   2.34738   3.964905 H        1 UNL1     0.0234
     116 H         -2.15618   3.288425   2.809314 H        1 UNL1     0.0234
     117 H         -2.676769   1.698432   3.404762 H        1 UNL1     0.0234
     118 H         0.314153   7.413559   -1.368893 H        1 UNL1     0.0309
     119 H         1.574594   7.846099   -2.565662 H        1 UNL1     0.0309
     120 H         1.146971   6.180384   -2.242108 H        1 UNL1     0.0309
     121 H         -2.185205   5.311146   3.364442 H        1 UNL1     0.0524
     122 H         -2.677795   5.924155   1.780639 H        1 UNL1     0.0524
     123 H         -3.195945   4.29972   2.29685 H        1 UNL1     0.0524
@<TRIPOS>BOND
     1     1     2    1
     2     1    42    1
     3     2     3    2
     4     3     4    1
     5     4     5    2
     6     5     7    1
     7     6    75    1
     8     6    76    1
     9     6    77    1
    10     7     9   am
    11     9    10    1
    12    10    11    2
    13    10    43    1
    14    11    14    1
    15    11    15    1
    16    12    13   ar
    17    12    27   ar
    18    12    43    1
    19    13    14    1
    20    13    30   ar
    21    14    17    2
    22    15    16    1
    23    16    17    1
    24    16    18    1
    25    16    22    1
    26    18    19    1
    27    19    20    1
    28    20    21    1
    29    21    22    1
    30    23    24    1
    31    23    88    1
    32    23    89    1
    33    24    25    1
    34    24    26    1
    35    24    90    1
    36    25    91    1
    37    25    92    1
    38    25    93    1
    39    26    94    1
    40    26    95    1
    41    26    96    1
    42    27    28   ar
    43    28    29   ar
    44    29    30   ar
    45    29    31    1
    46    30    33    1
    47    31    32    1
    48    32    33    1
    49    32    35    1
    50    34    97    1
    51    34    98    1
    52    34    99    1
    53    35    61    1
    54    36    37    1
    55    36    60    1
    56    37    38    1
    57    38    39    1
    58    39    40    1
    59    40    41    1
    60    41    42    1
    61    45   100    1
    62    47   101    1
    63    47   102    1
    64    47   103    1
    65    48   104    1
    66    49   105    1
    67    49   106    1
    68    49   107    1
    69    50   108    1
    70    51    59    1
    71    52   109    1
    72    52   110    1
    73    52   111    1
    74    53    54    1
    75    54    55    2
    76    54    56    1
    77    56   112    1
    78    56   113    1
    79    56   114    1
    80    57   115    1
    81    57   116    1
    82    57   117    1
    83    58   118    1
    84    58   119    1
    85    58   120    1
    86    59   121    1
    87    59   122    1
    88    59   123    1
    89    60    61    2
    90     1    47    1
    91     1    62    1
    92     2    63    1
    93     3    64    1
    94     4    65    1
    95     5     6    1
    96     7     8    2
    97     9    78    1
    98    15    79    1
    99    18    80    1
   100    18    81    1
   101    19    82    1
   102    19    83    1
   103    20    23    1
   104    21    84    1
   105    21    85    1
   106    22    86    1
   107    22    87    1
   108    27    45    1
   109    28    34    1
   110    32    58    1
   111    33    46    2
   112    36    51    1
   113    36    66    1
   114    37    52    1
   115    37    67    1
   116    38    53    1
   117    38    68    1
   118    42    48    1
   119    42    72    1
   120    43    44    2
   121    60    73    1
   122    61    74    1
   123    39    69    1
   124    39    57    1
   125    40    70    1
   126    40    50    1
   127    41    71    1
   128    41    49    1
