@<TRIPOS>MOLECULE
*****
 123 128 0 0 0
SMALL
GASTEIGER

@<TRIPOS>ATOM
     1 C         5.167944   1.744117   0.5 C.3        1 UNL1     0.0009
     2 C         6.606543   2.549514   -0.347822 C.2        1 UNL1     -0.0787
     3 C         7.889389   2.450656   -1.011584 C.2        1 UNL1     -0.0649
     4 C         8.768913   3.685438   -1.765315 C.2        1 UNL1     -0.0542
     5 C         9.790617   3.977709   -2.702212 C.2        1 UNL1     0.0115
     6 C         10.919713   3.351783   -3.566321 C.3        1 UNL1     -0.0348
     7 C         9.88798   5.461132   -3.307988 C.2        1 UNL1     0.2441
     8 O         10.711868   6.282034   -2.928707 O.2        1 UNL1     -0.2702
     9 N         9.139739   5.6691   -4.479755 N.am        1 UNL1     -0.2772
     10 C         7.856816   6.05659   -4.167854 C.2        1 UNL1     0.1049
     11 C         7.009871   5.085678   -3.877622 C.2        1 UNL1     0.0801
     12 C         6.557387   7.663634   -2.758519 C.ar        1 UNL1     0.0753
     13 C         5.796812   6.536096   -2.312657 C.ar        1 UNL1     0.0305
     14 C         5.913805   5.230562   -2.95837 C.2        1 UNL1     0.0924
     15 N         7.131775   3.756673   -4.037038 N.pl3        1 UNL1     -0.3170
     16 C         5.860992   3.158303   -3.725081 C.3        1 UNL1     0.1275
     17 N         5.223754   4.113618   -2.745782 N.2        1 UNL1     -0.2557
     18 C         5.010162   3.218485   -4.990059 C.3        1 UNL1     0.0016
     19 C         5.76631   2.534284   -6.117756 C.3        1 UNL1     0.0026
     20 N         6.034848   1.155836   -5.732013 N.3        1 UNL1     -0.3018
     21 C         6.796151   0.994406   -4.491559 C.3        1 UNL1     0.0026
     22 C         6.016156   1.685055   -3.371511 C.3        1 UNL1     0.0016
     23 C         6.480494   0.336408   -6.841328 C.3        1 UNL1     0.0012
     24 C         5.325286   0.084515   -7.823063 C.3        1 UNL1     -0.0339
     25 C         5.343903   1.092537   -8.983925 C.3        1 UNL1     -0.0615
     26 C         5.37204   -1.347924   -8.325768 C.3        1 UNL1     -0.0615
     27 C         6.352804   8.931266   -2.21873 C.ar        1 UNL1     0.1347
     28 C         5.392443   9.201139   -1.260123 C.ar        1 UNL1     0.0342
     29 C         4.68934   8.06702   -0.801228 C.ar        1 UNL1     0.1435
     30 C         4.908641   6.78503   -1.306824 C.ar        1 UNL1     0.0774
     31 O         3.6471   8.181013   0.050681 O.3        1 UNL1     -0.4436
     32 C         2.92475   6.948772   -0.093082 C.3        1 UNL1     0.3143
     33 C         3.938155   5.955137   -0.624036 C.2        1 UNL1     0.2504
     34 C         4.945909   10.567397   -0.819616 C.3        1 UNL1     -0.0327
     35 O         2.561746   6.511828   1.222425 O.2        1 UNL1     -0.4528
     36 C         -0.68208   4.582151   0.819897 C.3        1 UNL1     0.0854
     37 C         -0.986904   3.322133   -0.078412 C.3        1 UNL1     0.0236
     38 C         -1.5896   2.061224   0.708106 C.3        1 UNL1     0.1131
     39 C         -0.866253   1.529266   2.010434 C.3        1 UNL1     0.0200
     40 C         0.794767   1.382498   2.05413 C.3        1 UNL1     0.0661
     41 C         1.755394   0.613416   0.886517 C.3        1 UNL1     0.0091
     42 C         3.464119   0.974947   0.325306 C.3        1 UNL1     0.0661
     43 C         7.50902   7.455668   -3.878074 C.2        1 UNL1     0.2131
     44 O         7.910671   8.353728   -4.595641 O.2        1 UNL1     -0.2851
     45 O         7.166534   9.965957   -2.675563 O.3        1 UNL1     -0.5056
     46 O         3.953066   4.751541   -0.493691 O.2        1 UNL1     -0.2836
     47 C         5.561759   1.313808   1.938654 C.3        1 UNL1     -0.0566
     48 O         3.911529   -0.436515   0.407254 O.3        1 UNL1     -0.3909
     49 C         0.922964   0.3819   -0.354836 C.3        1 UNL1     -0.0577
     50 O         1.39524   2.599775   2.448326 O.3        1 UNL1     -0.3910
     51 O         -0.808466   4.392044   2.211054 O.3        1 UNL1     -0.3753
     52 C         0.059222   3.161335   -1.229374 C.3        1 UNL1     -0.0564
     53 O         -2.191561   1.023018   -0.193058 O.3        1 UNL1     -0.4608
     54 C         -2.415341   -0.286936   0.141417 C.2        1 UNL1     0.3042
     55 O         -1.843201   -1.280173   -0.305769 O.2        1 UNL1     -0.2512
     56 C         -3.446521   -0.4647   1.219277 C.3        1 UNL1     0.0332
     57 C         -1.58875   2.198312   3.270811 C.3        1 UNL1     -0.0567
     58 C         1.851417   7.195052   -1.178822 C.3        1 UNL1     0.0210
     59 C         -1.160576   5.562954   2.946481 C.3        1 UNL1     0.0372
     60 C         0.64773   5.210352   0.591577 C.2        1 UNL1     -0.0208
     61 C         1.559633   5.644595   1.462559 C.2        1 UNL1     0.0882
     62 H         4.692606   2.728604   0.586898 H        1 UNL1     0.0365
     63 H         6.340902   3.603468   -0.242538 H        1 UNL1     0.0576
     64 H         8.346681   1.483555   -1.232283 H        1 UNL1     0.0615
     65 H         8.281962   4.601061   -1.418911 H        1 UNL1     0.0622
     66 H         -1.425704   5.329337   0.5088 H        1 UNL1     0.0645
     67 H         -1.851279   3.632357   -0.690929 H        1 UNL1     0.0362
     68 H         -2.536895   2.498662   1.05854 H        1 UNL1     0.0741
     69 H         -1.198816   0.518338   2.204947 H        1 UNL1     0.0359
     70 H         0.904697   0.72176   2.935266 H        1 UNL1     0.0600
     71 H         1.797571   -0.407938   1.313147 H        1 UNL1     0.0348
     72 H         3.357079   1.462867   1.304996 H        1 UNL1     0.0602
     73 H         0.767372   5.407897   -0.444719 H        1 UNL1     0.0628
     74 H         1.54028   5.43355   2.532289 H        1 UNL1     0.1022
     75 H         10.96315   2.246416   -3.413643 H        1 UNL1     0.0279
     76 H         10.807808   3.435052   -4.645029 H        1 UNL1     0.0279
     77 H         11.924504   3.655633   -3.238036 H        1 UNL1     0.0279
     78 H         9.077914   4.799389   -5.004978 H        1 UNL1     0.1553
     79 H         7.797685   3.328422   -4.653559 H        1 UNL1     0.1484
     80 H         4.048224   2.728183   -4.797589 H        1 UNL1     0.0317
     81 H         4.78473   4.255503   -5.261031 H        1 UNL1     0.0317
     82 H         6.697743   3.064996   -6.364109 H        1 UNL1     0.0428
     83 H         5.142576   2.590211   -7.010436 H        1 UNL1     0.0428
     84 H         6.915231   -0.048747   -4.182586 H        1 UNL1     0.0428
     85 H         7.826671   1.361723   -4.593651 H        1 UNL1     0.0428
     86 H         6.530993   1.433982   -2.462725 H        1 UNL1     0.0317
     87 H         5.03617   1.208089   -3.248109 H        1 UNL1     0.0317
     88 H         7.275579   0.879187   -7.369082 H        1 UNL1     0.0429
     89 H         6.914685   -0.608461   -6.489939 H        1 UNL1     0.0429
     90 H         4.372489   0.183797   -7.289646 H        1 UNL1     0.0308
     91 H         6.291811   1.053989   -9.528982 H        1 UNL1     0.0233
     92 H         4.522951   0.897661   -9.67795 H        1 UNL1     0.0233
     93 H         5.215767   2.126476   -8.641309 H        1 UNL1     0.0233
     94 H         4.675484   -1.477988   -9.16107 H        1 UNL1     0.0233
     95 H         6.377319   -1.585189   -8.685049 H        1 UNL1     0.0233
     96 H         5.102522   -2.056453   -7.537533 H        1 UNL1     0.0233
     97 H         4.151393   10.517929   -0.081018 H        1 UNL1     0.0280
     98 H         5.758352   11.136677   -0.349389 H        1 UNL1     0.0280
     99 H         4.573986   11.132518   -1.689908 H        1 UNL1     0.0280
     100 H         6.700543   10.716632   -2.999541 H        1 UNL1     0.2922
     101 H         4.698254   0.879192   2.441769 H        1 UNL1     0.0236
     102 H         6.010842   2.119029   2.519109 H        1 UNL1     0.0236
     103 H         6.318565   0.511663   1.93844 H        1 UNL1     0.0236
     104 H         4.332152   -0.562387   1.280297 H        1 UNL1     0.2098
     105 H         0.71249   1.280983   -0.928562 H        1 UNL1     0.0234
     106 H         1.292371   -0.406664   -1.010299 H        1 UNL1     0.0234
     107 H         0.0   -0.0   0.0 H        1 UNL1     0.0234
     108 H         1.195845   3.259154   1.756062 H        1 UNL1     0.2098
     109 H         1.082615   3.040785   -0.847477 H        1 UNL1     0.0234
     110 H         -0.176069   2.338502   -1.912988 H        1 UNL1     0.0234
     111 H         0.086468   4.046924   -1.878169 H        1 UNL1     0.0234
     112 H         -3.57412   -1.528733   1.440404 H        1 UNL1     0.0342
     113 H         -3.197996   0.094491   2.120046 H        1 UNL1     0.0342
     114 H         -4.405216   -0.081496   0.843481 H        1 UNL1     0.0342
     115 H         -2.653185   1.930641   3.320989 H        1 UNL1     0.0234
     116 H         -1.138877   1.937097   4.230722 H        1 UNL1     0.0234
     117 H         -1.648325   3.298672   3.21081 H        1 UNL1     0.0234
     118 H         0.950063   7.682466   -0.767733 H        1 UNL1     0.0309
     119 H         2.222517   7.783069   -2.024235 H        1 UNL1     0.0309
     120 H         1.462824   6.263527   -1.604691 H        1 UNL1     0.0309
     121 H         -0.361378   6.290923   2.809738 H        1 UNL1     0.0524
     122 H         -2.093988   6.022021   2.580371 H        1 UNL1     0.0524
     123 H         -1.274455   5.324852   4.000252 H        1 UNL1     0.0524
@<TRIPOS>BOND
     1     1     2    1
     2     1    42    1
     3     2     3    2
     4     3     4    1
     5     4     5    2
     6     5     7    1
     7     6    75    1
     8     6    76    1
     9     6    77    1
    10     7     9   am
    11     9    10    1
    12    10    11    2
    13    10    43    1
    14    11    14    1
    15    11    15    1
    16    12    13   ar
    17    12    27   ar
    18    12    43    1
    19    13    14    1
    20    13    30   ar
    21    14    17    2
    22    15    16    1
    23    16    17    1
    24    16    18    1
    25    16    22    1
    26    18    19    1
    27    19    20    1
    28    20    21    1
    29    21    22    1
    30    23    24    1
    31    23    88    1
    32    23    89    1
    33    24    25    1
    34    24    26    1
    35    24    90    1
    36    25    91    1
    37    25    92    1
    38    25    93    1
    39    26    94    1
    40    26    95    1
    41    26    96    1
    42    27    28   ar
    43    28    29   ar
    44    29    30   ar
    45    29    31    1
    46    30    33    1
    47    31    32    1
    48    32    33    1
    49    32    35    1
    50    34    97    1
    51    34    98    1
    52    34    99    1
    53    35    61    1
    54    36    37    1
    55    36    60    1
    56    37    38    1
    57    38    39    1
    58    39    40    1
    59    40    41    1
    60    41    42    1
    61    45   100    1
    62    47   101    1
    63    47   102    1
    64    47   103    1
    65    48   104    1
    66    49   105    1
    67    49   106    1
    68    49   107    1
    69    50   108    1
    70    51    59    1
    71    52   109    1
    72    52   110    1
    73    52   111    1
    74    53    54    1
    75    54    55    2
    76    54    56    1
    77    56   112    1
    78    56   113    1
    79    56   114    1
    80    57   115    1
    81    57   116    1
    82    57   117    1
    83    58   118    1
    84    58   119    1
    85    58   120    1
    86    59   121    1
    87    59   122    1
    88    59   123    1
    89    60    61    2
    90     1    47    1
    91     1    62    1
    92     2    63    1
    93     3    64    1
    94     4    65    1
    95     5     6    1
    96     7     8    2
    97     9    78    1
    98    15    79    1
    99    18    80    1
   100    18    81    1
   101    19    82    1
   102    19    83    1
   103    20    23    1
   104    21    84    1
   105    21    85    1
   106    22    86    1
   107    22    87    1
   108    27    45    1
   109    28    34    1
   110    32    58    1
   111    33    46    2
   112    36    51    1
   113    36    66    1
   114    37    52    1
   115    37    67    1
   116    38    53    1
   117    38    68    1
   118    42    48    1
   119    42    72    1
   120    43    44    2
   121    60    73    1
   122    61    74    1
   123    39    69    1
   124    39    57    1
   125    40    70    1
   126    40    50    1
   127    41    71    1
   128    41    49    1
