@<TRIPOS>MOLECULE
*****
 123 128 0 0 0
SMALL
GASTEIGER

@<TRIPOS>ATOM
     1 C         3.782674   -1.194685   -2.829571 C.3        1 UNL1     0.0009
     2 C         4.062935   -1.247658   -4.661424 C.2        1 UNL1     -0.0787
     3 C         4.339386   -1.997498   -5.868636 C.2        1 UNL1     -0.0649
     4 C         4.368414   -1.428934   -7.463079 C.2        1 UNL1     -0.0542
     5 C         4.290796   -1.797597   -8.828781 C.2        1 UNL1     0.0115
     6 C         4.285835   -3.005167   -9.806059 C.3        1 UNL1     -0.0348
     7 C         3.961491   -0.668036   -9.92086 C.2        1 UNL1     0.2441
     8 O         4.816534   -0.16544   -10.636978 O.2        1 UNL1     -0.2702
     9 N         2.592704   -0.482319   -10.18179 N.am        1 UNL1     -0.2772
     10 C         2.057816   0.436886   -9.308704 C.2        1 UNL1     0.1049
     11 C         1.702256   -0.024555   -8.123431 C.2        1 UNL1     0.0801
     12 C         2.436415   2.716328   -8.350508 C.ar        1 UNL1     0.0753
     13 C         2.24737   2.12074   -7.062818 C.ar        1 UNL1     0.0305
     14 C         1.744067   0.756736   -6.917109 C.2        1 UNL1     0.0924
     15 N         1.580004   -1.291178   -7.690709 N.pl3        1 UNL1     -0.3170
     16 C         0.997907   -1.251933   -6.375462 C.3        1 UNL1     0.1275
     17 N         1.417627   0.085546   -5.81626 N.2        1 UNL1     -0.2557
     18 C         -0.515748   -1.180616   -6.552846 C.3        1 UNL1     0.0016
     19 C         -0.962016   -2.360225   -7.401938 C.3        1 UNL1     0.0026
     20 N         -0.570408   -3.593014   -6.732682 N.3        1 UNL1     -0.3018
     21 C         0.862682   -3.725518   -6.462382 C.3        1 UNL1     0.0026
     22 C         1.288477   -2.532814   -5.604448 C.3        1 UNL1     0.0016
     23 C         -1.203409   -4.767577   -7.298682 C.3        1 UNL1     0.0012
     24 C         -0.379103   -5.308347   -8.477599 C.3        1 UNL1     -0.0339
     25 C         0.24704   -6.673121   -8.146851 C.3        1 UNL1     -0.0615
     26 C         -1.239824   -5.376289   -9.727128 C.3        1 UNL1     -0.0615
     27 C         2.800394   4.054527   -8.480359 C.ar        1 UNL1     0.1347
     28 C         2.964442   4.903813   -7.400613 C.ar        1 UNL1     0.0342
     29 C         2.821021   4.283287   -6.14143 C.ar        1 UNL1     0.1435
     30 C         2.492087   2.935072   -5.995349 C.ar        1 UNL1     0.0774
     31 O         2.842142   4.999617   -4.996252 O.3        1 UNL1     -0.4436
     32 C         2.211215   4.15058   -4.025715 C.3        1 UNL1     0.3143
     33 C         2.373541   2.743769   -4.564924 C.2        1 UNL1     0.2504
     34 C         3.105649   6.398994   -7.468389 C.3        1 UNL1     -0.0327
     35 O         2.98669   4.228562   -2.823297 O.2        1 UNL1     -0.4528
     36 C         0.543398   3.675462   0.028455 C.3        1 UNL1     0.0854
     37 C         -0.417329   2.453256   0.294424 C.3        1 UNL1     0.0236
     38 C         -0.249677   1.762106   1.731766 C.3        1 UNL1     0.1131
     39 C         1.187409   1.330664   2.232674 C.3        1 UNL1     0.0200
     40 C         2.248722   0.566205   1.197465 C.3        1 UNL1     0.0661
     41 C         1.894063   -0.778019   0.225411 C.3        1 UNL1     0.0091
     42 C         2.541572   -1.259149   -1.422208 C.3        1 UNL1     0.0661
     43 C         2.144835   1.885634   -9.545158 C.2        1 UNL1     0.2131
     44 O         1.885465   2.349736   -10.640637 O.2        1 UNL1     -0.2851
     45 O         3.008853   4.544334   -9.768021 O.3        1 UNL1     -0.5056
     46 O         2.417572   1.701607   -3.950258 O.2        1 UNL1     -0.2836
     47 C         5.126329   -1.374254   -2.073049 C.3        1 UNL1     -0.0566
     48 O         2.805894   -2.665746   -1.033961 O.3        1 UNL1     -0.3909
     49 C         0.394085   -0.966982   0.182379 C.3        1 UNL1     -0.0577
     50 O         2.998174   1.511143   0.460486 O.3        1 UNL1     -0.3910
     51 O         1.539097   3.8994   1.001011 O.3        1 UNL1     -0.3753
     52 C         -0.671881   1.61999   -1.003967 C.3        1 UNL1     -0.0564
     53 O         -1.385516   0.851497   2.09644 O.3        1 UNL1     -0.4608
     54 C         -1.268625   -0.332216   2.776947 C.2        1 UNL1     0.3042
     55 O         -1.310028   -1.469626   2.30959 O.2        1 UNL1     -0.2512
     56 C         -1.006994   -0.158096   4.245942 C.3        1 UNL1     0.0332
     57 C         1.757296   2.516527   3.142141 C.3        1 UNL1     -0.0567
     58 C         0.709011   4.517789   -4.034031 C.3        1 UNL1     0.0210
     59 C         1.325846   5.045015   1.824393 C.3        1 UNL1     0.0372
     60 C         1.229182   3.660443   -1.292391 C.2        1 UNL1     -0.0208
     61 C         2.501097   3.907043   -1.608878 C.2        1 UNL1     0.0882
     62 H         3.608895   -0.114611   -2.906721 H        1 UNL1     0.0365
     63 H         4.038074   -0.182789   -4.902062 H        1 UNL1     0.0576
     64 H         4.398523   -3.088181   -5.864116 H        1 UNL1     0.0615
     65 H         4.385972   -0.341385   -7.351668 H        1 UNL1     0.0622
     66 H         -0.121236   4.550715   0.012955 H        1 UNL1     0.0645
     67 H         -1.416627   2.912996   0.387179 H        1 UNL1     0.0362
     68 H         -0.542521   2.604855   2.37639 H        1 UNL1     0.0741
     69 H         1.075606   0.610325   3.032061 H        1 UNL1     0.0359
     70 H         2.967761   0.154568   1.931358 H        1 UNL1     0.0600
     71 H         2.196317   -1.595782   0.908685 H        1 UNL1     0.0348
     72 H         3.266104   -0.5424   -1.009123 H        1 UNL1     0.0602
     73 H         0.50647   3.533384   -2.059719 H        1 UNL1     0.0628
     74 H         3.31165   3.991435   -0.884227 H        1 UNL1     0.1022
     75 H         5.330203   -3.309299   -10.058712 H        1 UNL1     0.0279
     76 H         3.856462   -3.931327   -9.430646 H        1 UNL1     0.0279
     77 H         3.88898   -2.747161   -10.798853 H        1 UNL1     0.0279
     78 H         2.096149   -1.360197   -10.044526 H        1 UNL1     0.1553
     79 H         1.49042   -2.082242   -8.301549 H        1 UNL1     0.1484
     80 H         -0.992515   -1.194863   -5.565295 H        1 UNL1     0.0317
     81 H         -0.809954   -0.23934   -7.029389 H        1 UNL1     0.0317
     82 H         -0.544045   -2.311567   -8.418228 H        1 UNL1     0.0428
     83 H         -2.043969   -2.288897   -7.51744 H        1 UNL1     0.0428
     84 H         1.119892   -4.62156   -5.889001 H        1 UNL1     0.0428
     85 H         1.445852   -3.824763   -7.388331 H        1 UNL1     0.0428
     86 H         2.30426   -2.731134   -5.316626 H        1 UNL1     0.0317
     87 H         0.747332   -2.545275   -4.650455 H        1 UNL1     0.0317
     88 H         -1.248114   -5.540169   -6.519967 H        1 UNL1     0.0429
     89 H         -2.236954   -4.55647   -7.601987 H        1 UNL1     0.0429
     90 H         0.426583   -4.600911   -8.706982 H        1 UNL1     0.0308
     91 H         -0.319955   -7.192733   -7.368634 H        1 UNL1     0.0233
     92 H         0.293114   -7.303192   -9.038196 H        1 UNL1     0.0233
     93 H         1.277618   -6.582567   -7.782786 H        1 UNL1     0.0233
     94 H         -1.461172   -6.41955   -9.977025 H        1 UNL1     0.0233
     95 H         -2.189519   -4.862057   -9.55506 H        1 UNL1     0.0233
     96 H         -0.738516   -4.914913   -10.582575 H        1 UNL1     0.0233
     97 H         4.061114   6.699422   -7.887984 H        1 UNL1     0.0280
     98 H         2.339432   6.858535   -8.106347 H        1 UNL1     0.0280
     99 H         3.024677   6.823669   -6.454392 H        1 UNL1     0.0280
     100 H         2.236182   4.876061   -10.190583 H        1 UNL1     0.2922
     101 H         5.026606   -1.002923   -1.053331 H        1 UNL1     0.0236
     102 H         5.973152   -0.925116   -2.59088 H        1 UNL1     0.0236
     103 H         5.398355   -2.436843   -1.958594 H        1 UNL1     0.0236
     104 H         3.386535   -3.055934   -1.716295 H        1 UNL1     0.2098
     105 H         0.04668   -1.623067   -0.611771 H        1 UNL1     0.0234
     106 H         -0.056308   -1.252959   1.132795 H        1 UNL1     0.0234
     107 H         -0.0   0.0   0.0 H        1 UNL1     0.0234
     108 H         2.945388   2.360551   0.939535 H        1 UNL1     0.2098
     109 H         -1.147477   2.216842   -1.794719 H        1 UNL1     0.0234
     110 H         0.234833   1.147422   -1.396769 H        1 UNL1     0.0234
     111 H         -1.351645   0.777875   -0.817659 H        1 UNL1     0.0234
     112 H         -1.649528   0.631428   4.647374 H        1 UNL1     0.0342
     113 H         -1.138361   -1.087342   4.798289 H        1 UNL1     0.0342
     114 H         0.036927   0.160031   4.37317 H        1 UNL1     0.0342
     115 H         2.656805   2.211511   3.694442 H        1 UNL1     0.0234
     116 H         2.005031   3.422797   2.585947 H        1 UNL1     0.0234
     117 H         1.084217   2.798354   3.970078 H        1 UNL1     0.0234
     118 H         0.547712   5.600746   -4.176135 H        1 UNL1     0.0309
     119 H         0.136615   3.968438   -4.788204 H        1 UNL1     0.0309
     120 H         0.221027   4.313496   -3.074738 H        1 UNL1     0.0309
     121 H         2.301927   5.402126   2.151646 H        1 UNL1     0.0524
     122 H         0.837446   5.868462   1.277183 H        1 UNL1     0.0524
     123 H         0.715553   4.781914   2.683703 H        1 UNL1     0.0524
@<TRIPOS>BOND
     1     1     2    1
     2     1    42    1
     3     2     3    2
     4     3     4    1
     5     4     5    2
     6     5     7    1
     7     6    75    1
     8     6    76    1
     9     6    77    1
    10     7     9   am
    11     9    10    1
    12    10    11    2
    13    10    43    1
    14    11    14    1
    15    11    15    1
    16    12    13   ar
    17    12    27   ar
    18    12    43    1
    19    13    14    1
    20    13    30   ar
    21    14    17    2
    22    15    16    1
    23    16    17    1
    24    16    18    1
    25    16    22    1
    26    18    19    1
    27    19    20    1
    28    20    21    1
    29    21    22    1
    30    23    24    1
    31    23    88    1
    32    23    89    1
    33    24    25    1
    34    24    26    1
    35    24    90    1
    36    25    91    1
    37    25    92    1
    38    25    93    1
    39    26    94    1
    40    26    95    1
    41    26    96    1
    42    27    28   ar
    43    28    29   ar
    44    29    30   ar
    45    29    31    1
    46    30    33    1
    47    31    32    1
    48    32    33    1
    49    32    35    1
    50    34    97    1
    51    34    98    1
    52    34    99    1
    53    35    61    1
    54    36    37    1
    55    36    60    1
    56    37    38    1
    57    38    39    1
    58    39    40    1
    59    40    41    1
    60    41    42    1
    61    45   100    1
    62    47   101    1
    63    47   102    1
    64    47   103    1
    65    48   104    1
    66    49   105    1
    67    49   106    1
    68    49   107    1
    69    50   108    1
    70    51    59    1
    71    52   109    1
    72    52   110    1
    73    52   111    1
    74    53    54    1
    75    54    55    2
    76    54    56    1
    77    56   112    1
    78    56   113    1
    79    56   114    1
    80    57   115    1
    81    57   116    1
    82    57   117    1
    83    58   118    1
    84    58   119    1
    85    58   120    1
    86    59   121    1
    87    59   122    1
    88    59   123    1
    89    60    61    2
    90     1    47    1
    91     1    62    1
    92     2    63    1
    93     3    64    1
    94     4    65    1
    95     5     6    1
    96     7     8    2
    97     9    78    1
    98    15    79    1
    99    18    80    1
   100    18    81    1
   101    19    82    1
   102    19    83    1
   103    20    23    1
   104    21    84    1
   105    21    85    1
   106    22    86    1
   107    22    87    1
   108    27    45    1
   109    28    34    1
   110    32    58    1
   111    33    46    2
   112    36    51    1
   113    36    66    1
   114    37    52    1
   115    37    67    1
   116    38    53    1
   117    38    68    1
   118    42    48    1
   119    42    72    1
   120    43    44    2
   121    60    73    1
   122    61    74    1
   123    39    69    1
   124    39    57    1
   125    40    70    1
   126    40    50    1
   127    41    71    1
   128    41    49    1
