@<TRIPOS>MOLECULE
*****
 123 128 0 0 0
SMALL
GASTEIGER

@<TRIPOS>ATOM
     1 C         5.19913   1.596665   0.64729 C.3        1 UNL1     0.0009
     2 C         6.687467   2.349211   -0.162378 C.2        1 UNL1     -0.0787
     3 C         7.987236   2.204707   -0.783479 C.2        1 UNL1     -0.0649
     4 C         8.926912   3.404073   -1.521643 C.2        1 UNL1     -0.0542
     5 C         9.986202   3.655071   -2.428276 C.2        1 UNL1     0.0115
     6 C         11.122938   2.985999   -3.248946 C.3        1 UNL1     -0.0348
     7 C         10.147214   5.127839   -3.046352 C.2        1 UNL1     0.2441
     8 O         10.982862   5.928312   -2.649539 O.2        1 UNL1     -0.2702
     9 N         9.443194   5.34429   -4.243706 N.am        1 UNL1     -0.2772
     10 C         8.163193   5.773205   -3.977335 C.2        1 UNL1     0.1049
     11 C         7.278717   4.831239   -3.704163 C.2        1 UNL1     0.0801
     12 C         6.86836   7.434264   -2.627659 C.ar        1 UNL1     0.0753
     13 C         6.060526   6.334995   -2.194505 C.ar        1 UNL1     0.0305
     14 C         6.158804   5.019174   -2.822204 C.2        1 UNL1     0.0924
     15 N         7.365731   3.497448   -3.845437 N.pl3        1 UNL1     -0.3170
     16 C         6.0683   2.940644   -3.568135 C.3        1 UNL1     0.1275
     17 N         5.429164   3.925701   -2.620037 N.2        1 UNL1     -0.2557
     18 C         5.260323   3.011342   -4.860373 C.3        1 UNL1     0.0016
     19 C         6.031104   2.292019   -5.955846 C.3        1 UNL1     0.0026
     20 N         6.245789   0.910783   -5.547034 N.3        1 UNL1     -0.3018
     21 C         6.962069   0.741255   -4.281107 C.3        1 UNL1     0.0026
     22 C         6.167901   1.467641   -3.194114 C.3        1 UNL1     0.0016
     23 C         6.701725   0.065712   -6.632677 C.3        1 UNL1     0.0012
     24 C         5.572593   -0.159629   -7.650537 C.3        1 UNL1     -0.0339
     25 C         5.717549   0.770394   -8.866309 C.3        1 UNL1     -0.0615
     26 C         5.529561   -1.619931   -8.0658 C.3        1 UNL1     -0.0615
     27 C         6.684808   8.713571   -2.108235 C.ar        1 UNL1     0.1347
     28 C         5.702966   9.022866   -1.183913 C.ar        1 UNL1     0.0342
     29 C         4.951937   7.915469   -0.735816 C.ar        1 UNL1     0.1435
     30 C         5.148675   6.621771   -1.220441 C.ar        1 UNL1     0.0774
     31 O         3.887014   8.070152   0.080897 O.3        1 UNL1     -0.4436
     32 C         3.132984   6.858269   -0.072895 C.3        1 UNL1     0.3143
     33 C         4.132518   5.828961   -0.560408 C.2        1 UNL1     0.2504
     34 C         5.283809   10.406766   -0.772539 C.3        1 UNL1     -0.0327
     35 O         2.715384   6.447544   1.234839 O.2        1 UNL1     -0.4528
     36 C         -0.570392   4.610279   0.748813 C.3        1 UNL1     0.0854
     37 C         -0.884128   3.34952   -0.145378 C.3        1 UNL1     0.0236
     38 C         -1.549068   2.116219   0.634729 C.3        1 UNL1     0.1131
     39 C         -0.883784   1.578191   1.965215 C.3        1 UNL1     0.0200
     40 C         0.769858   1.382795   2.063828 C.3        1 UNL1     0.0661
     41 C         1.743648   0.572114   0.935937 C.3        1 UNL1     0.0091
     42 C         3.479429   0.876336   0.426118 C.3        1 UNL1     0.0661
     43 C         7.848458   7.185237   -3.713778 C.2        1 UNL1     0.2131
     44 O         8.299474   8.062628   -4.427575 O.2        1 UNL1     -0.2851
     45 O         7.543312   9.718337   -2.549658 O.3        1 UNL1     -0.5056
     46 O         4.107184   4.627044   -0.416858 O.2        1 UNL1     -0.2836
     47 C         5.533908   1.171578   2.102352 C.3        1 UNL1     -0.0566
     48 O         3.881488   -0.546717   0.537409 O.3        1 UNL1     -0.3909
     49 C         0.944556   0.350991   -0.328995 C.3        1 UNL1     -0.0577
     50 O         1.393715   2.586235   2.464152 O.3        1 UNL1     -0.3910
     51 O         -0.746605   4.440133   2.137132 O.3        1 UNL1     -0.3753
     52 C         0.192786   3.144474   -1.26035 C.3        1 UNL1     -0.0564
     53 O         -2.152917   1.085928   -0.274223 O.3        1 UNL1     -0.4608
     54 C         -2.426004   -0.212974   0.06667 C.2        1 UNL1     0.3042
     55 O         -1.869466   -1.227614   -0.351192 O.2        1 UNL1     -0.2512
     56 C         -3.496055   -0.348051   1.112356 C.3        1 UNL1     0.0332
     57 C         -1.62562   2.282909   3.194535 C.3        1 UNL1     -0.0567
     58 C         2.102594   7.123641   -1.195126 C.3        1 UNL1     0.0210
     59 C         -1.047983   5.636356   2.854132 C.3        1 UNL1     0.0372
     60 C         0.784243   5.19612   0.556681 C.2        1 UNL1     -0.0208
     61 C         1.680591   5.613221   1.451852 C.2        1 UNL1     0.0882
     62 H         4.750998   2.595743   0.708392 H        1 UNL1     0.0365
     63 H         6.450329   3.411722   -0.076899 H        1 UNL1     0.0576
     64 H         8.422115   1.22199   -0.97907 H        1 UNL1     0.0615
     65 H         8.456859   4.337673   -1.200825 H        1 UNL1     0.0622
     66 H         -1.281009   5.375513   0.406049 H        1 UNL1     0.0645
     67 H         -1.718894   3.678096   -0.788623 H        1 UNL1     0.0362
     68 H         -2.493489   2.585559   0.949865 H        1 UNL1     0.0741
     69 H         -1.252524   0.579881   2.15968 H        1 UNL1     0.0359
     70 H         0.831848   0.729346   2.95502 H        1 UNL1     0.0600
     71 H         1.741594   -0.44503   1.37454 H        1 UNL1     0.0348
     72 H         3.355958   1.378534   1.396617 H        1 UNL1     0.0602
     73 H         0.942655   5.378012   -0.477277 H        1 UNL1     0.0628
     74 H         1.620904   5.415252   2.522592 H        1 UNL1     0.1022
     75 H         11.110369   1.878603   -3.10559 H        1 UNL1     0.0279
     76 H         11.062062   3.082895   -4.330599 H        1 UNL1     0.0279
     77 H         12.124977   3.24172   -2.87448 H        1 UNL1     0.0279
     78 H         9.372059   4.470765   -4.761365 H        1 UNL1     0.1553
     79 H         8.037775   3.042542   -4.435648 H        1 UNL1     0.1484
     80 H         4.278483   2.552017   -4.693714 H        1 UNL1     0.0317
     81 H         5.074816   4.051374   -5.149462 H        1 UNL1     0.0317
     82 H         6.985393   2.792013   -6.177767 H        1 UNL1     0.0428
     83 H         5.438036   2.356051   -6.868655 H        1 UNL1     0.0428
     84 H         7.039934   -0.301317   -3.957392 H        1 UNL1     0.0428
     85 H         8.005864   1.076674   -4.353929 H        1 UNL1     0.0428
     86 H         6.645813   1.211975   -2.266633 H        1 UNL1     0.0317
     87 H         5.170627   1.021379   -3.097205 H        1 UNL1     0.0317
     88 H         7.531193   0.577132   -7.138372 H        1 UNL1     0.0429
     89 H         7.093134   -0.888735   -6.257705 H        1 UNL1     0.0429
     90 H         4.608834   0.043257   -7.168646 H        1 UNL1     0.0308
     91 H         6.686003   0.635304   -9.357174 H        1 UNL1     0.0233
     92 H         4.919957   0.58716   -9.590106 H        1 UNL1     0.0233
     93 H         5.644651   1.829936   -8.592645 H        1 UNL1     0.0233
     94 H         4.861803   -1.74891   -8.924461 H        1 UNL1     0.0233
     95 H         6.527956   -1.953716   -8.36204 H        1 UNL1     0.0233
     96 H         5.171922   -2.256045   -7.251292 H        1 UNL1     0.0233
     97 H         4.459021   10.389668   -0.066378 H        1 UNL1     0.0280
     98 H         6.094782   10.953823   -0.274234 H        1 UNL1     0.0280
     99 H         4.965821   10.975626   -1.66157 H        1 UNL1     0.0280
     100 H         7.110555   10.479623   -2.894314 H        1 UNL1     0.2922
     101 H         4.638888   0.781589   2.586607 H        1 UNL1     0.0236
     102 H         6.00075   1.965592   2.684232 H        1 UNL1     0.0236
     103 H         6.255347   0.338108   2.134711 H        1 UNL1     0.0236
     104 H         4.262081   -0.676903   1.42801 H        1 UNL1     0.2098
     105 H         0.778845   1.249339   -0.918336 H        1 UNL1     0.0234
     106 H         1.311263   -0.455221   -0.964192 H        1 UNL1     0.0234
     107 H         0.0   -0.0   0.0 H        1 UNL1     0.0234
     108 H         1.253862   3.237132   1.74963 H        1 UNL1     0.2098
     109 H         1.202243   3.016591   -0.845194 H        1 UNL1     0.0234
     110 H         -0.035955   2.309467   -1.931308 H        1 UNL1     0.0234
     111 H         0.254133   4.01378   -1.928548 H        1 UNL1     0.0234
     112 H         -3.649941   -1.404325   1.353082 H        1 UNL1     0.0342
     113 H         -3.268256   0.227668   2.008179 H        1 UNL1     0.0342
     114 H         -4.43453   0.042517   0.695359 H        1 UNL1     0.0342
     115 H         -2.703037   2.067639   3.199129 H        1 UNL1     0.0234
     116 H         -1.230252   2.00089   4.172389 H        1 UNL1     0.0234
     117 H         -1.628734   3.38481   3.133339 H        1 UNL1     0.0234
     118 H         1.202963   7.640888   -0.818131 H        1 UNL1     0.0309
     119 H         2.517448   7.691889   -2.033692 H        1 UNL1     0.0309
     120 H         1.701132   6.199155   -1.624384 H        1 UNL1     0.0309
     121 H         -0.186137   6.297683   2.769143 H        1 UNL1     0.0524
     122 H         -1.917465   6.168438   2.433504 H        1 UNL1     0.0524
     123 H         -1.244761   5.409353   3.898087 H        1 UNL1     0.0524
@<TRIPOS>BOND
     1     1     2    1
     2     1    42    1
     3     2     3    2
     4     3     4    1
     5     4     5    2
     6     5     7    1
     7     6    75    1
     8     6    76    1
     9     6    77    1
    10     7     9   am
    11     9    10    1
    12    10    11    2
    13    10    43    1
    14    11    14    1
    15    11    15    1
    16    12    13   ar
    17    12    27   ar
    18    12    43    1
    19    13    14    1
    20    13    30   ar
    21    14    17    2
    22    15    16    1
    23    16    17    1
    24    16    18    1
    25    16    22    1
    26    18    19    1
    27    19    20    1
    28    20    21    1
    29    21    22    1
    30    23    24    1
    31    23    88    1
    32    23    89    1
    33    24    25    1
    34    24    26    1
    35    24    90    1
    36    25    91    1
    37    25    92    1
    38    25    93    1
    39    26    94    1
    40    26    95    1
    41    26    96    1
    42    27    28   ar
    43    28    29   ar
    44    29    30   ar
    45    29    31    1
    46    30    33    1
    47    31    32    1
    48    32    33    1
    49    32    35    1
    50    34    97    1
    51    34    98    1
    52    34    99    1
    53    35    61    1
    54    36    37    1
    55    36    60    1
    56    37    38    1
    57    38    39    1
    58    39    40    1
    59    40    41    1
    60    41    42    1
    61    45   100    1
    62    47   101    1
    63    47   102    1
    64    47   103    1
    65    48   104    1
    66    49   105    1
    67    49   106    1
    68    49   107    1
    69    50   108    1
    70    51    59    1
    71    52   109    1
    72    52   110    1
    73    52   111    1
    74    53    54    1
    75    54    55    2
    76    54    56    1
    77    56   112    1
    78    56   113    1
    79    56   114    1
    80    57   115    1
    81    57   116    1
    82    57   117    1
    83    58   118    1
    84    58   119    1
    85    58   120    1
    86    59   121    1
    87    59   122    1
    88    59   123    1
    89    60    61    2
    90     1    47    1
    91     1    62    1
    92     2    63    1
    93     3    64    1
    94     4    65    1
    95     5     6    1
    96     7     8    2
    97     9    78    1
    98    15    79    1
    99    18    80    1
   100    18    81    1
   101    19    82    1
   102    19    83    1
   103    20    23    1
   104    21    84    1
   105    21    85    1
   106    22    86    1
   107    22    87    1
   108    27    45    1
   109    28    34    1
   110    32    58    1
   111    33    46    2
   112    36    51    1
   113    36    66    1
   114    37    52    1
   115    37    67    1
   116    38    53    1
   117    38    68    1
   118    42    48    1
   119    42    72    1
   120    43    44    2
   121    60    73    1
   122    61    74    1
   123    39    69    1
   124    39    57    1
   125    40    70    1
   126    40    50    1
   127    41    71    1
   128    41    49    1
