@<TRIPOS>MOLECULE
*****
 123 128 0 0 0
SMALL
GASTEIGER

@<TRIPOS>ATOM
     1 C         5.169308   1.742258   0.492 C.3        1 UNL1     0.0009
     2 C         6.607232   2.546273   -0.358278 C.2        1 UNL1     -0.0787
     3 C         7.889136   2.446245   -1.023681 C.2        1 UNL1     -0.0649
     4 C         8.768352   3.680024   -1.779411 C.2        1 UNL1     -0.0542
     5 C         9.788972   3.971089   -2.717864 C.2        1 UNL1     0.0115
     6 C         10.916561   3.343946   -3.583056 C.3        1 UNL1     -0.0348
     7 C         9.886365   5.454051   -3.324764 C.2        1 UNL1     0.2441
     8 O         10.711221   6.27474   -2.94713 O.2        1 UNL1     -0.2702
     9 N         9.136682   5.661657   -4.495672 N.am        1 UNL1     -0.2772
     10 C         7.854394   6.050082   -4.182322 C.2        1 UNL1     0.1049
     11 C         7.007288   5.079844   -3.890311 C.2        1 UNL1     0.0801
     12 C         6.557752   7.658804   -2.772335 C.ar        1 UNL1     0.0753
     13 C         5.797135   6.531996   -2.324704 C.ar        1 UNL1     0.0305
     14 C         5.91253   5.225964   -2.969697 C.2        1 UNL1     0.0924
     15 N         7.128229   3.750664   -4.048998 N.pl3        1 UNL1     -0.3170
     16 C         5.857525   3.153222   -3.734948 C.3        1 UNL1     0.1275
     17 N         5.222132   4.109553   -2.755442 N.2        1 UNL1     -0.2557
     18 C         5.005045   3.213038   -4.998832 C.3        1 UNL1     0.0016
     19 C         5.759303   2.527654   -6.127076 C.3        1 UNL1     0.0026
     20 N         6.027576   1.149314   -5.740767 N.3        1 UNL1     -0.3018
     21 C         6.790439   0.988283   -4.50122 C.3        1 UNL1     0.0026
     22 C         6.012327   1.680123   -3.380598 C.3        1 UNL1     0.0016
     23 C         6.47128   0.32889   -6.850125 C.3        1 UNL1     0.0012
     24 C         5.31574   0.08063   -7.832393 C.3        1 UNL1     -0.0339
     25 C         5.392857   1.026603   -9.04204 C.3        1 UNL1     -0.0615
     26 C         5.30127   -1.376088   -8.261978 C.3        1 UNL1     -0.0615
     27 C         6.354604   8.926914   -2.233124 C.ar        1 UNL1     0.1347
     28 C         5.395674   9.197971   -1.27342 C.ar        1 UNL1     0.0342
     29 C         4.692542   8.064558   -0.812829 C.ar        1 UNL1     0.1435
     30 C         4.910446   6.782106   -1.317857 C.ar        1 UNL1     0.0774
     31 O         3.651503   8.179711   0.040391 O.3        1 UNL1     -0.4436
     32 C         2.928267   6.947784   -0.101584 C.3        1 UNL1     0.3143
     33 C         3.940402   5.953219   -0.63322 C.2        1 UNL1     0.2504
     34 C         4.9505   10.564776   -0.833235 C.3        1 UNL1     -0.0327
     35 O         2.566769   6.511926   1.214698 O.2        1 UNL1     -0.4528
     36 C         -0.67868   4.583815   0.817786 C.3        1 UNL1     0.0854
     37 C         -0.985412   3.323369   -0.079272 C.3        1 UNL1     0.0236
     38 C         -1.587772   2.063328   0.708893 C.3        1 UNL1     0.1131
     39 C         -0.862992   1.531832   2.010613 C.3        1 UNL1     0.0200
     40 C         0.798002   1.384154   2.052195 C.3        1 UNL1     0.0661
     41 C         1.756638   0.613747   0.883819 C.3        1 UNL1     0.0091
     42 C         3.464818   0.973935   0.320091 C.3        1 UNL1     0.0661
     43 C         7.507775   7.44955   -3.893017 C.2        1 UNL1     0.2131
     44 O         7.908977   8.346902   -4.61172 O.2        1 UNL1     -0.2851
     45 O         7.16831   9.960838   -2.691734 O.3        1 UNL1     -0.5056
     46 O         3.954807   4.749703   -0.502088 O.2        1 UNL1     -0.2836
     47 C         5.564797   1.31269   1.930416 C.3        1 UNL1     -0.0566
     48 O         3.911539   -0.437725   0.402389 O.3        1 UNL1     -0.3909
     49 C         0.922425   0.381871   -0.356268 C.3        1 UNL1     -0.0577
     50 O         1.399687   2.601355   2.444775 O.3        1 UNL1     -0.3910
     51 O         -0.803321   4.394711   2.209237 O.3        1 UNL1     -0.3753
     52 C         0.059088   3.161208   -1.231518 C.3        1 UNL1     -0.0564
     53 O         -2.19152   1.024859   -0.190771 O.3        1 UNL1     -0.4608
     54 C         -2.415204   -0.284847   0.144736 C.2        1 UNL1     0.3042
     55 O         -1.843726   -1.278468   -0.302442 O.2        1 UNL1     -0.2512
     56 C         -3.445288   -0.461752   1.223785 C.3        1 UNL1     0.0332
     57 C         -1.58343   2.202132   3.271503 C.3        1 UNL1     -0.0567
     58 C         1.853627   7.193943   -1.186058 C.3        1 UNL1     0.0210
     59 C         -1.115154   5.57434   2.948899 C.3        1 UNL1     0.0372
     60 C         0.651179   5.211111   0.587273 C.2        1 UNL1     -0.0208
     61 C         1.564487   5.645421   1.456749 C.2        1 UNL1     0.0882
     62 H         4.694643   2.727072   0.57887 H        1 UNL1     0.0365
     63 H         6.342326   3.600448   -0.253346 H        1 UNL1     0.0576
     64 H         8.345586   1.478738   -1.244341 H        1 UNL1     0.0615
     65 H         8.28238   4.596154   -1.432972 H        1 UNL1     0.0622
     66 H         -1.422296   5.331214   0.507178 H        1 UNL1     0.0645
     67 H         -1.850427   3.633671   -0.690845 H        1 UNL1     0.0362
     68 H         -2.534352   2.501536   1.060295 H        1 UNL1     0.0741
     69 H         -1.195866   0.521223   2.206247 H        1 UNL1     0.0359
     70 H         0.908733   0.723944   2.933627 H        1 UNL1     0.0600
     71 H         1.798806   -0.407345   1.311078 H        1 UNL1     0.0348
     72 H         3.359358   1.462572   1.299595 H        1 UNL1     0.0602
     73 H         0.769551   5.407894   -0.449314 H        1 UNL1     0.0628
     74 H         1.54644   5.435103   2.526645 H        1 UNL1     0.1022
     75 H         10.940967   2.235283   -3.451505 H        1 UNL1     0.0279
     76 H         10.816735   3.449805   -4.660969 H        1 UNL1     0.0279
     77 H         11.92272   3.62526   -3.239241 H        1 UNL1     0.0279
     78 H         9.073666   4.791631   -5.020228 H        1 UNL1     0.1553
     79 H         7.793076   3.321624   -4.666118 H        1 UNL1     0.1484
     80 H         4.043087   2.723409   -4.804752 H        1 UNL1     0.0317
     81 H         4.779838   4.250002   -5.270198 H        1 UNL1     0.0317
     82 H         6.690706   3.057674   -6.375025 H        1 UNL1     0.0428
     83 H         5.134411   2.583336   -7.018962 H        1 UNL1     0.0428
     84 H         6.909342   -0.05473   -4.191707 H        1 UNL1     0.0428
     85 H         7.82103   1.354949   -4.604931 H        1 UNL1     0.0428
     86 H         6.528233   1.429368   -2.472329 H        1 UNL1     0.0317
     87 H         5.032238   1.203795   -3.25557 H        1 UNL1     0.0317
     88 H         7.268157   0.869494   -7.377411 H        1 UNL1     0.0429
     89 H         6.902575   -0.617335   -6.498818 H        1 UNL1     0.0429
     90 H         4.363161   0.250278   -7.316617 H        1 UNL1     0.0308
     91 H         6.347858   0.924946   -9.566197 H        1 UNL1     0.0233
     92 H         4.577149   0.827239   -9.740957 H        1 UNL1     0.0233
     93 H         5.298414   2.08076   -8.754516 H        1 UNL1     0.0233
     94 H         4.609179   -1.516061   -9.099387 H        1 UNL1     0.0233
     95 H         6.298465   -1.677407   -8.594799 H        1 UNL1     0.0233
     96 H         4.989715   -2.030539   -7.443079 H        1 UNL1     0.0233
     97 H         4.150649   10.516393   -0.100345 H        1 UNL1     0.0280
     98 H         5.761461   11.130434   -0.35613 H        1 UNL1     0.0280
     99 H         4.58655   11.132891   -1.704947 H        1 UNL1     0.0280
     100 H         6.702333   10.712477   -3.013489 H        1 UNL1     0.2922
     101 H         4.698187   0.891746   2.439779 H        1 UNL1     0.0236
     102 H         6.027589   2.114234   2.505162 H        1 UNL1     0.0236
     103 H         6.310818   0.500505   1.929701 H        1 UNL1     0.0236
     104 H         4.325342   -0.565553   1.278402 H        1 UNL1     0.2098
     105 H         0.711061   1.280799   -0.929911 H        1 UNL1     0.0234
     106 H         1.290931   -0.406832   -1.012071 H        1 UNL1     0.0234
     107 H         0.0   -0.0   0.0 H        1 UNL1     0.0234
     108 H         1.217156   3.254961   1.742458 H        1 UNL1     0.2098
     109 H         1.085161   3.058914   -0.851488 H        1 UNL1     0.0234
     110 H         -0.167628   2.326578   -1.903632 H        1 UNL1     0.0234
     111 H         0.072765   4.03857   -1.891818 H        1 UNL1     0.0234
     112 H         -3.560287   -1.524444   1.457892 H        1 UNL1     0.0342
     113 H         -3.204458   0.111442   2.117816 H        1 UNL1     0.0342
     114 H         -4.40814   -0.094795   0.842439 H        1 UNL1     0.0342
     115 H         -2.653382   1.95525   3.30946 H        1 UNL1     0.0234
     116 H         -1.147536   1.922108   4.23256 H        1 UNL1     0.0234
     117 H         -1.620594   3.304021   3.222522 H        1 UNL1     0.0234
     118 H         0.952472   7.680734   -0.773795 H        1 UNL1     0.0309
     119 H         2.223507   7.782483   -2.031642 H        1 UNL1     0.0309
     120 H         1.465047   6.262388   -1.611872 H        1 UNL1     0.0309
     121 H         -0.276206   6.26153   2.842632 H        1 UNL1     0.0524
     122 H         -2.013312   6.084808   2.563188 H        1 UNL1     0.0524
     123 H         -1.27021   5.331241   3.996255 H        1 UNL1     0.0524
@<TRIPOS>BOND
     1     1     2    1
     2     1    42    1
     3     2     3    2
     4     3     4    1
     5     4     5    2
     6     5     7    1
     7     6    75    1
     8     6    76    1
     9     6    77    1
    10     7     9   am
    11     9    10    1
    12    10    11    2
    13    10    43    1
    14    11    14    1
    15    11    15    1
    16    12    13   ar
    17    12    27   ar
    18    12    43    1
    19    13    14    1
    20    13    30   ar
    21    14    17    2
    22    15    16    1
    23    16    17    1
    24    16    18    1
    25    16    22    1
    26    18    19    1
    27    19    20    1
    28    20    21    1
    29    21    22    1
    30    23    24    1
    31    23    88    1
    32    23    89    1
    33    24    25    1
    34    24    26    1
    35    24    90    1
    36    25    91    1
    37    25    92    1
    38    25    93    1
    39    26    94    1
    40    26    95    1
    41    26    96    1
    42    27    28   ar
    43    28    29   ar
    44    29    30   ar
    45    29    31    1
    46    30    33    1
    47    31    32    1
    48    32    33    1
    49    32    35    1
    50    34    97    1
    51    34    98    1
    52    34    99    1
    53    35    61    1
    54    36    37    1
    55    36    60    1
    56    37    38    1
    57    38    39    1
    58    39    40    1
    59    40    41    1
    60    41    42    1
    61    45   100    1
    62    47   101    1
    63    47   102    1
    64    47   103    1
    65    48   104    1
    66    49   105    1
    67    49   106    1
    68    49   107    1
    69    50   108    1
    70    51    59    1
    71    52   109    1
    72    52   110    1
    73    52   111    1
    74    53    54    1
    75    54    55    2
    76    54    56    1
    77    56   112    1
    78    56   113    1
    79    56   114    1
    80    57   115    1
    81    57   116    1
    82    57   117    1
    83    58   118    1
    84    58   119    1
    85    58   120    1
    86    59   121    1
    87    59   122    1
    88    59   123    1
    89    60    61    2
    90     1    47    1
    91     1    62    1
    92     2    63    1
    93     3    64    1
    94     4    65    1
    95     5     6    1
    96     7     8    2
    97     9    78    1
    98    15    79    1
    99    18    80    1
   100    18    81    1
   101    19    82    1
   102    19    83    1
   103    20    23    1
   104    21    84    1
   105    21    85    1
   106    22    86    1
   107    22    87    1
   108    27    45    1
   109    28    34    1
   110    32    58    1
   111    33    46    2
   112    36    51    1
   113    36    66    1
   114    37    52    1
   115    37    67    1
   116    38    53    1
   117    38    68    1
   118    42    48    1
   119    42    72    1
   120    43    44    2
   121    60    73    1
   122    61    74    1
   123    39    69    1
   124    39    57    1
   125    40    70    1
   126    40    50    1
   127    41    71    1
   128    41    49    1
