@<TRIPOS>MOLECULE
*****
 123 128 0 0 0
SMALL
GASTEIGER

@<TRIPOS>ATOM
     1 C         0.266569   3.161072   4.439594 C.3        1 UNL1     0.0009
     2 C         -0.700085   4.273837   5.564036 C.2        1 UNL1     -0.0787
     3 C         -1.020143   5.600729   6.046702 C.2        1 UNL1     -0.0649
     4 C         -2.22641   6.044259   7.148772 C.2        1 UNL1     -0.0542
     5 C         -3.02441   7.111637   7.629374 C.2        1 UNL1     0.0115
     6 C         -3.224916   8.651372   7.581017 C.3        1 UNL1     -0.0348
     7 C         -4.351378   6.773475   8.467103 C.2        1 UNL1     0.2441
     8 O         -4.409466   6.861784   9.685853 O.2        1 UNL1     -0.2702
     9 N         -5.514481   6.62205   7.692239 N.am        1 UNL1     -0.2772
     10 C         -5.644712   5.318535   7.271276 C.2        1 UNL1     0.1049
     11 C         -4.960973   4.984414   6.191885 C.2        1 UNL1     0.0801
     12 C         -5.584561   2.954924   8.088013 C.ar        1 UNL1     0.0753
     13 C         -4.674226   2.6902   7.015717 C.ar        1 UNL1     0.0305
     14 C         -4.436577   3.666725   5.955069 C.2        1 UNL1     0.0924
     15 N         -4.315036   5.759767   5.304124 N.pl3        1 UNL1     -0.3170
     16 C         -3.88005   4.91869   4.220781 C.3        1 UNL1     0.1275
     17 N         -3.712538   3.55488   4.845031 N.2        1 UNL1     -0.2557
     18 C         -5.047147   4.797614   3.245627 C.3        1 UNL1     0.0016
     19 C         -5.474998   6.194134   2.823412 C.3        1 UNL1     0.0026
     20 N         -4.340355   6.863177   2.202127 N.3        1 UNL1     -0.3018
     21 C         -3.146527   6.972789   3.043036 C.3        1 UNL1     0.0026
     22 C         -2.731567   5.558351   3.451776 C.3        1 UNL1     0.0016
     23 C         -4.715091   8.074804   1.500575 C.3        1 UNL1     0.0012
     24 C         -5.29557   9.106815   2.480247 C.3        1 UNL1     -0.0339
     25 C         -6.712584   8.717703   2.932704 C.3        1 UNL1     -0.0615
     26 C         -4.360202   9.285219   3.663479 C.3        1 UNL1     -0.0615
     27 C         -5.897446   1.975421   9.027585 C.ar        1 UNL1     0.1347
     28 C         -5.395514   0.687234   8.975733 C.ar        1 UNL1     0.0342
     29 C         -4.463612   0.463969   7.939935 C.ar        1 UNL1     0.1435
     30 C         -4.112945   1.446227   7.012884 C.ar        1 UNL1     0.0774
     31 O         -3.969372   -0.768232   7.69011 O.3        1 UNL1     -0.4436
     32 C         -3.472384   -0.693844   6.345364 C.3        1 UNL1     0.3143
     33 C         -3.207133   0.778089   6.101916 C.2        1 UNL1     0.2504
     34 C         -5.875744   -0.479705   9.792882 C.3        1 UNL1     -0.0327
     35 O         -2.201773   -1.355907   6.323586 O.2        1 UNL1     -0.4528
     36 C         -1.833355   -2.786119   2.826895 C.3        1 UNL1     0.0854
     37 C         -1.879634   -2.042986   1.436522 C.3        1 UNL1     0.0236
     38 C         -0.596988   -2.27607   0.502587 C.3        1 UNL1     0.1131
     39 C         0.854064   -2.052807   1.091545 C.3        1 UNL1     0.0200
     40 C         1.182571   -0.72679   2.048729 C.3        1 UNL1     0.0661
     41 C         0.796639   0.883772   1.68164 C.3        1 UNL1     0.0091
     42 C         0.350135   2.281224   2.783078 C.3        1 UNL1     0.0661
     43 C         -6.253471   4.279345   8.11499 C.2        1 UNL1     0.2131
     44 O         -7.298083   4.493935   8.70276 O.2        1 UNL1     -0.2851
     45 O         -6.756899   2.328583   10.065879 O.3        1 UNL1     -0.5056
     46 O         -2.411454   1.284935   5.343065 O.2        1 UNL1     -0.2836
     47 C         1.728529   3.023603   4.943336 C.3        1 UNL1     -0.0566
     48 O         1.279885   3.237834   2.135329 O.3        1 UNL1     -0.3909
     49 C         -0.182216   0.900442   0.528791 C.3        1 UNL1     -0.0577
     50 O         0.881822   -0.999171   3.402643 O.3        1 UNL1     -0.3910
     51 O         -0.61274   -3.413147   3.149954 O.3        1 UNL1     -0.3753
     52 C         -2.589073   -0.653611   1.542736 C.3        1 UNL1     -0.0564
     53 O         -0.809814   -1.862231   -0.924217 O.3        1 UNL1     -0.4608
     54 C         0.071948   -1.136373   -1.681551 C.2        1 UNL1     0.3042
     55 O         -0.183516   -0.184514   -2.418125 O.2        1 UNL1     -0.2512
     56 C         1.502858   -1.560469   -1.510223 C.3        1 UNL1     0.0332
     57 C         1.402383   -3.475333   1.575217 C.3        1 UNL1     -0.0567
     58 C         -4.628586   -1.15116   5.425805 C.3        1 UNL1     0.0210
     59 C         -0.514941   -3.87701   4.495736 C.3        1 UNL1     0.0372
     60 C         -2.210157   -1.950444   3.999426 C.2        1 UNL1     -0.0208
     61 C         -1.637466   -1.834837   5.198344 C.2        1 UNL1     0.0882
     62 H         -0.285698   2.304317   4.844172 H        1 UNL1     0.0365
     63 H         -1.250755   3.53833   6.154174 H        1 UNL1     0.0576
     64 H         -0.588564   6.494968   5.591527 H        1 UNL1     0.0615
     65 H         -2.53038   5.095094   7.598405 H        1 UNL1     0.0622
     66 H         -2.6064   -3.563653   2.75015 H        1 UNL1     0.0645
     67 H         -2.662428   -2.578864   0.872051 H        1 UNL1     0.0362
     68 H         -0.68227   -3.361414   0.340481 H        1 UNL1     0.0741
     69 H         1.547856   -1.930319   0.270535 H        1 UNL1     0.0359
     70 H         2.288533   -0.729427   2.005115 H        1 UNL1     0.0600
     71 H         1.731765   1.196391   1.176896 H        1 UNL1     0.0348
     72 H         0.851953   1.539985   3.421873 H        1 UNL1     0.0602
     73 H         -3.14818   -1.489452   3.812751 H        1 UNL1     0.0628
     74 H         -0.65199   -2.227297   5.451422 H        1 UNL1     0.1022
     75 H         -4.211575   8.932261   8.022196 H        1 UNL1     0.0279
     76 H         -2.528636   9.249825   8.164213 H        1 UNL1     0.0279
     77 H         -3.329035   9.034666   6.555373 H        1 UNL1     0.0279
     78 H         -5.450839   7.20723   6.861822 H        1 UNL1     0.1553
     79 H         -4.486162   6.742445   5.19461 H        1 UNL1     0.1484
     80 H         -4.731925   4.197493   2.383504 H        1 UNL1     0.0317
     81 H         -5.88811   4.267749   3.705709 H        1 UNL1     0.0317
     82 H         -5.86085   6.776117   3.67331 H        1 UNL1     0.0428
     83 H         -6.309234   6.084571   2.129802 H        1 UNL1     0.0428
     84 H         -2.284642   7.406792   2.526696 H        1 UNL1     0.0428
     85 H         -3.309528   7.642108   3.89905 H        1 UNL1     0.0428
     86 H         -1.786416   5.666681   3.950717 H        1 UNL1     0.0317
     87 H         -2.482237   4.968855   2.561031 H        1 UNL1     0.0317
     88 H         -3.811395   8.497577   1.042436 H        1 UNL1     0.0429
     89 H         -5.41937   7.862304   0.685953 H        1 UNL1     0.0429
     90 H         -5.342972   10.084337   1.985863 H        1 UNL1     0.0308
     91 H         -7.470899   9.116192   2.252066 H        1 UNL1     0.0233
     92 H         -6.815741   7.631476   2.988192 H        1 UNL1     0.0233
     93 H         -6.951043   9.099007   3.932994 H        1 UNL1     0.0233
     94 H         -4.509848   10.270522   4.118034 H        1 UNL1     0.0233
     95 H         -4.570696   8.527765   4.423688 H        1 UNL1     0.0233
     96 H         -3.312847   9.19984   3.360616 H        1 UNL1     0.0233
     97 H         -6.949649   -0.619169   9.712214 H        1 UNL1     0.0280
     98 H         -5.424506   -1.426232   9.467725 H        1 UNL1     0.0280
     99 H         -5.627521   -0.314207   10.854057 H        1 UNL1     0.0280
     100 H         -6.591078   3.17587   10.440353 H        1 UNL1     0.2922
     101 H         1.954651   3.830317   5.640285 H        1 UNL1     0.0236
     102 H         2.45672   2.965293   4.135053 H        1 UNL1     0.0236
     103 H         1.880687   2.099635   5.525851 H        1 UNL1     0.0236
     104 H         1.237121   4.075821   2.636247 H        1 UNL1     0.2098
     105 H         -1.227548   0.905315   0.827235 H        1 UNL1     0.0234
     106 H         0.002207   1.676457   -0.213985 H        1 UNL1     0.0234
     107 H         0.0   0.0   -0.0 H        1 UNL1     0.0234
     108 H         1.61645   -1.533538   3.76117 H        1 UNL1     0.2098
     109 H         -2.554568   -0.09552   0.596662 H        1 UNL1     0.0234
     110 H         -3.625978   -0.725119   1.888361 H        1 UNL1     0.0234
     111 H         -2.104414   -0.007533   2.286802 H        1 UNL1     0.0234
     112 H         1.809934   -1.422055   -0.469121 H        1 UNL1     0.0342
     113 H         1.667024   -2.587539   -1.832742 H        1 UNL1     0.0342
     114 H         2.13049   -0.910816   -2.135678 H        1 UNL1     0.0342
     115 H         1.627262   -3.482183   2.650657 H        1 UNL1     0.0234
     116 H         0.720514   -4.30469   1.37705 H        1 UNL1     0.0234
     117 H         2.3871   -3.734986   1.149947 H        1 UNL1     0.0234
     118 H         -4.47363   -0.838596   4.378284 H        1 UNL1     0.0309
     119 H         -4.799373   -2.23197   5.455532 H        1 UNL1     0.0309
     120 H         -5.584604   -0.685733   5.689459 H        1 UNL1     0.0309
     121 H         0.27221   -3.304366   4.98546 H        1 UNL1     0.0524
     122 H         -1.446263   -3.713826   5.063228 H        1 UNL1     0.0524
     123 H         -0.273321   -4.936   4.511651 H        1 UNL1     0.0524
@<TRIPOS>BOND
     1     1     2    1
     2     1    42    1
     3     2     3    2
     4     3     4    1
     5     4     5    2
     6     5     7    1
     7     6    75    1
     8     6    76    1
     9     6    77    1
    10     7     9   am
    11     9    10    1
    12    10    11    2
    13    10    43    1
    14    11    14    1
    15    11    15    1
    16    12    13   ar
    17    12    27   ar
    18    12    43    1
    19    13    14    1
    20    13    30   ar
    21    14    17    2
    22    15    16    1
    23    16    17    1
    24    16    18    1
    25    16    22    1
    26    18    19    1
    27    19    20    1
    28    20    21    1
    29    21    22    1
    30    23    24    1
    31    23    88    1
    32    23    89    1
    33    24    25    1
    34    24    26    1
    35    24    90    1
    36    25    91    1
    37    25    92    1
    38    25    93    1
    39    26    94    1
    40    26    95    1
    41    26    96    1
    42    27    28   ar
    43    28    29   ar
    44    29    30   ar
    45    29    31    1
    46    30    33    1
    47    31    32    1
    48    32    33    1
    49    32    35    1
    50    34    97    1
    51    34    98    1
    52    34    99    1
    53    35    61    1
    54    36    37    1
    55    36    60    1
    56    37    38    1
    57    38    39    1
    58    39    40    1
    59    40    41    1
    60    41    42    1
    61    45   100    1
    62    47   101    1
    63    47   102    1
    64    47   103    1
    65    48   104    1
    66    49   105    1
    67    49   106    1
    68    49   107    1
    69    50   108    1
    70    51    59    1
    71    52   109    1
    72    52   110    1
    73    52   111    1
    74    53    54    1
    75    54    55    2
    76    54    56    1
    77    56   112    1
    78    56   113    1
    79    56   114    1
    80    57   115    1
    81    57   116    1
    82    57   117    1
    83    58   118    1
    84    58   119    1
    85    58   120    1
    86    59   121    1
    87    59   122    1
    88    59   123    1
    89    60    61    2
    90     1    47    1
    91     1    62    1
    92     2    63    1
    93     3    64    1
    94     4    65    1
    95     5     6    1
    96     7     8    2
    97     9    78    1
    98    15    79    1
    99    18    80    1
   100    18    81    1
   101    19    82    1
   102    19    83    1
   103    20    23    1
   104    21    84    1
   105    21    85    1
   106    22    86    1
   107    22    87    1
   108    27    45    1
   109    28    34    1
   110    32    58    1
   111    33    46    2
   112    36    51    1
   113    36    66    1
   114    37    52    1
   115    37    67    1
   116    38    53    1
   117    38    68    1
   118    42    48    1
   119    42    72    1
   120    43    44    2
   121    60    73    1
   122    61    74    1
   123    39    69    1
   124    39    57    1
   125    40    70    1
   126    40    50    1
   127    41    71    1
   128    41    49    1
