@<TRIPOS>MOLECULE
*****
 123 128 0 0 0
SMALL
GASTEIGER

@<TRIPOS>ATOM
     1 C         -0.164658   1.880717   3.787959 C.3        1 UNL1     0.0009
     2 C         -1.627715   2.020065   4.918041 C.2        1 UNL1     -0.0787
     3 C         -2.694483   2.806663   5.500549 C.2        1 UNL1     -0.0649
     4 C         -3.942538   2.278021   6.51507 C.2        1 UNL1     -0.0542
     5 C         -5.232387   2.574658   7.020416 C.2        1 UNL1     0.0115
     6 C         -6.323401   3.676793   7.111572 C.3        1 UNL1     -0.0348
     7 C         -6.0984   1.395028   7.680328 C.2        1 UNL1     0.2441
     8 O         -6.219934   1.255174   8.889541 O.2        1 UNL1     -0.2702
     9 N         -6.918209   0.691967   6.780456 N.am        1 UNL1     -0.2772
     10 C         -6.224962   -0.354001   6.215936 C.2        1 UNL1     0.1049
     11 C         -5.459297   -0.054393   5.182391 C.2        1 UNL1     0.0801
     12 C         -4.760509   -2.300302   6.785695 C.ar        1 UNL1     0.0753
     13 C         -3.856708   -1.811603   5.789238 C.ar        1 UNL1     0.0305
     14 C         -4.239933   -0.746944   4.864742 C.2        1 UNL1     0.0924
     15 N         -5.398962   1.070601   4.4494 N.pl3        1 UNL1     -0.3170
     16 C         -4.524163   0.822166   3.334384 C.3        1 UNL1     0.1275
     17 N         -3.57625   -0.243475   3.827934 N.2        1 UNL1     -0.2557
     18 C         -5.361938   0.1694   2.239061 C.3        1 UNL1     0.0016
     19 C         -6.54041   1.076366   1.922509 C.3        1 UNL1     0.0026
     20 N         -6.031652   2.371155   1.491563 N.3        1 UNL1     -0.3018
     21 C         -5.163263   3.050101   2.455566 C.3        1 UNL1     0.0026
     22 C         -3.983956   2.12323   2.755629 C.3        1 UNL1     0.0016
     23 C         -7.050902   3.204026   0.88485 C.3        1 UNL1     0.0012
     24 C         -7.833793   3.969032   1.963555 C.3        1 UNL1     -0.0339
     25 C         -9.307119   4.153702   1.564475 C.3        1 UNL1     -0.0615
     26 C         -7.701408   3.263431   3.30198 C.3        1 UNL1     -0.0615
     27 C         -4.43317   -3.39488   7.582479 C.ar        1 UNL1     0.1347
     28 C         -3.252858   -4.104105   7.448633 C.ar        1 UNL1     0.0342
     29 C         -2.357659   -3.575046   6.494758 C.ar        1 UNL1     0.1435
     30 C         -2.656829   -2.457522   5.714464 C.ar        1 UNL1     0.0774
     31 O         -1.213819   -4.216288   6.170032 O.3        1 UNL1     -0.4436
     32 C         -0.839345   -3.667818   4.897309 C.3        1 UNL1     0.3143
     33 C         -1.515241   -2.312992   4.835457 C.2        1 UNL1     0.2504
     34 C         -2.942971   -5.42898   8.08799 C.3        1 UNL1     -0.0327
     35 O         0.572868   -3.428157   4.935627 O.2        1 UNL1     -0.4528
     36 C         1.794699   -3.83501   1.364957 C.3        1 UNL1     0.0854
     37 C         1.332812   -3.076806   0.061381 C.3        1 UNL1     0.0236
     38 C         2.511191   -2.360604   -0.75729 C.3        1 UNL1     0.1131
     39 C         3.51993   -1.402191   -0.004853 C.3        1 UNL1     0.0200
     40 C         2.9612   -0.296961   1.11261 C.3        1 UNL1     0.0661
     41 C         1.685481   0.796029   0.876977 C.3        1 UNL1     0.0091
     42 C         0.464293   1.474008   2.066283 C.3        1 UNL1     0.0661
     43 C         -6.095166   -1.658655   6.881808 C.2        1 UNL1     0.2131
     44 O         -7.066758   -2.197609   7.380081 O.2        1 UNL1     -0.2851
     45 O         -5.349429   -3.778524   8.559579 O.3        1 UNL1     -0.5056
     46 O         -1.175489   -1.32892   4.217375 O.2        1 UNL1     -0.2836
     47 C         1.072721   2.573227   4.419865 C.3        1 UNL1     -0.0566
     48 O         0.636378   2.877121   1.618199 O.3        1 UNL1     -0.3909
     49 C         0.917253   0.389886   -0.360911 C.3        1 UNL1     -0.0577
     50 O         2.862584   -0.885761   2.393748 O.3        1 UNL1     -0.3910
     51 O         3.139739   -3.647036   1.743063 O.3        1 UNL1     -0.3753
     52 C         -0.074844   -2.419482   0.238523 C.3        1 UNL1     -0.0564
     53 O         2.116845   -1.956493   -2.147797 O.3        1 UNL1     -0.4608
     54 C         2.887432   -2.113323   -3.270084 C.2        1 UNL1     0.3042
     55 O         3.535202   -1.248227   -3.858167 O.2        1 UNL1     -0.2512
     56 C         2.955298   -3.531949   -3.759581 C.3        1 UNL1     0.0332
     57 C         4.808896   -2.266537   0.381989 C.3        1 UNL1     -0.0567
     58 C         -1.465844   -4.58737   3.82332 C.3        1 UNL1     0.0210
     59 C         3.984525   -4.777913   1.534925 C.3        1 UNL1     0.0372
     60 C         0.967866   -3.568879   2.573543 C.2        1 UNL1     -0.0208
     61 C         1.332018   -3.307575   3.829672 C.2        1 UNL1     0.0882
     62 H         -0.092516   0.816758   4.043885 H        1 UNL1     0.0365
     63 H         -1.631046   1.026114   5.37028 H        1 UNL1     0.0576
     64 H         -2.884438   3.835369   5.186243 H        1 UNL1     0.0615
     65 H         -3.617696   1.28299   6.8311 H        1 UNL1     0.0622
     66 H         1.651843   -4.899281   1.130511 H        1 UNL1     0.0645
     67 H         1.044611   -3.886249   -0.631659 H        1 UNL1     0.0362
     68 H         3.103451   -3.244705   -1.038566 H        1 UNL1     0.0741
     69 H         4.012472   -0.773348   -0.734488 H        1 UNL1     0.0359
     70 H         3.843505   0.367821   1.180896 H        1 UNL1     0.0600
     71 H         2.249235   1.673681   0.50433 H        1 UNL1     0.0348
     72 H         1.300942   1.097219   2.672388 H        1 UNL1     0.0602
     73 H         -0.054244   -3.738636   2.341761 H        1 UNL1     0.0628
     74 H         2.349194   -3.064922   4.139042 H        1 UNL1     0.1022
     75 H         -6.495987   3.970548   8.175036 H        1 UNL1     0.0279
     76 H         -6.091472   4.62918   6.640151 H        1 UNL1     0.0279
     77 H         -7.320382   3.313199   6.822559 H        1 UNL1     0.0279
     78 H         -7.207032   1.31086   6.025719 H        1 UNL1     0.1553
     79 H         -6.128191   1.7595   4.425391 H        1 UNL1     0.1484
     80 H         -4.732296   0.007825   1.355765 H        1 UNL1     0.0317
     81 H         -5.718423   -0.817023   2.554558 H        1 UNL1     0.0317
     82 H         -7.215043   1.183194   2.784698 H        1 UNL1     0.0428
     83 H         -7.12537   0.591115   1.140586 H        1 UNL1     0.0428
     84 H         -4.731075   3.98145   2.0766 H        1 UNL1     0.0428
     85 H         -5.713586   3.358078   3.35535 H        1 UNL1     0.0428
     86 H         -3.306513   2.701684   3.356003 H        1 UNL1     0.0317
     87 H         -3.412661   1.934788   1.838455 H        1 UNL1     0.0317
     88 H         -6.552619   3.932526   0.231936 H        1 UNL1     0.0429
     89 H         -7.724392   2.612374   0.251499 H        1 UNL1     0.0429
     90 H         -7.382513   4.958836   2.100843 H        1 UNL1     0.0308
     91 H         -9.736015   3.221719   1.184269 H        1 UNL1     0.0233
     92 H         -9.897698   4.499014   2.416288 H        1 UNL1     0.0233
     93 H         -9.435448   4.907118   0.777881 H        1 UNL1     0.0233
     94 H         -8.528201   3.547318   3.962024 H        1 UNL1     0.0233
     95 H         -7.741162   2.179983   3.158723 H        1 UNL1     0.0233
     96 H         -6.760484   3.519768   3.796876 H        1 UNL1     0.0233
     97 H         -2.711548   -6.192637   7.351444 H        1 UNL1     0.0280
     98 H         -2.068563   -5.374761   8.749598 H        1 UNL1     0.0280
     99 H         -3.812106   -5.767552   8.675416 H        1 UNL1     0.0280
     100 H         -5.768809   -3.063638   9.005317 H        1 UNL1     0.2922
     101 H         0.969989   3.655124   4.338618 H        1 UNL1     0.0236
     102 H         2.017952   2.220151   4.008942 H        1 UNL1     0.0236
     103 H         1.147429   2.379759   5.503 H        1 UNL1     0.0236
     104 H         1.228592   3.320193   2.256902 H        1 UNL1     0.2098
     105 H         0.687357   1.210281   -1.036122 H        1 UNL1     0.0234
     106 H         1.351198   -0.443588   -0.913125 H        1 UNL1     0.0234
     107 H         0.0   -0.0   0.0 H        1 UNL1     0.0234
     108 H         2.327129   -0.28606   2.948198 H        1 UNL1     0.2098
     109 H         -0.856255   -3.161488   0.454241 H        1 UNL1     0.0234
     110 H         -0.091086   -1.636936   1.004748 H        1 UNL1     0.0234
     111 H         -0.39868   -1.903929   -0.675414 H        1 UNL1     0.0234
     112 H         3.600183   -3.590841   -4.641625 H        1 UNL1     0.0342
     113 H         3.291681   -4.217433   -2.983177 H        1 UNL1     0.0342
     114 H         1.944401   -3.839856   -4.060323 H        1 UNL1     0.0342
     115 H         5.727603   -1.664531   0.354513 H        1 UNL1     0.0234
     116 H         4.751267   -2.732897   1.367502 H        1 UNL1     0.0234
     117 H         5.047796   -3.053617   -0.353793 H        1 UNL1     0.0234
     118 H         -0.701789   -5.170026   3.279501 H        1 UNL1     0.0309
     119 H         -2.21683   -5.272469   4.229353 H        1 UNL1     0.0309
     120 H         -1.967207   -4.024376   3.028474 H        1 UNL1     0.0309
     121 H         4.810596   -4.70693   2.241978 H        1 UNL1     0.0524
     122 H         3.463481   -5.730481   1.727704 H        1 UNL1     0.0524
     123 H         4.362259   -4.782491   0.516402 H        1 UNL1     0.0524
@<TRIPOS>BOND
     1     1     2    1
     2     1    42    1
     3     2     3    2
     4     3     4    1
     5     4     5    2
     6     5     7    1
     7     6    75    1
     8     6    76    1
     9     6    77    1
    10     7     9   am
    11     9    10    1
    12    10    11    2
    13    10    43    1
    14    11    14    1
    15    11    15    1
    16    12    13   ar
    17    12    27   ar
    18    12    43    1
    19    13    14    1
    20    13    30   ar
    21    14    17    2
    22    15    16    1
    23    16    17    1
    24    16    18    1
    25    16    22    1
    26    18    19    1
    27    19    20    1
    28    20    21    1
    29    21    22    1
    30    23    24    1
    31    23    88    1
    32    23    89    1
    33    24    25    1
    34    24    26    1
    35    24    90    1
    36    25    91    1
    37    25    92    1
    38    25    93    1
    39    26    94    1
    40    26    95    1
    41    26    96    1
    42    27    28   ar
    43    28    29   ar
    44    29    30   ar
    45    29    31    1
    46    30    33    1
    47    31    32    1
    48    32    33    1
    49    32    35    1
    50    34    97    1
    51    34    98    1
    52    34    99    1
    53    35    61    1
    54    36    37    1
    55    36    60    1
    56    37    38    1
    57    38    39    1
    58    39    40    1
    59    40    41    1
    60    41    42    1
    61    45   100    1
    62    47   101    1
    63    47   102    1
    64    47   103    1
    65    48   104    1
    66    49   105    1
    67    49   106    1
    68    49   107    1
    69    50   108    1
    70    51    59    1
    71    52   109    1
    72    52   110    1
    73    52   111    1
    74    53    54    1
    75    54    55    2
    76    54    56    1
    77    56   112    1
    78    56   113    1
    79    56   114    1
    80    57   115    1
    81    57   116    1
    82    57   117    1
    83    58   118    1
    84    58   119    1
    85    58   120    1
    86    59   121    1
    87    59   122    1
    88    59   123    1
    89    60    61    2
    90     1    47    1
    91     1    62    1
    92     2    63    1
    93     3    64    1
    94     4    65    1
    95     5     6    1
    96     7     8    2
    97     9    78    1
    98    15    79    1
    99    18    80    1
   100    18    81    1
   101    19    82    1
   102    19    83    1
   103    20    23    1
   104    21    84    1
   105    21    85    1
   106    22    86    1
   107    22    87    1
   108    27    45    1
   109    28    34    1
   110    32    58    1
   111    33    46    2
   112    36    51    1
   113    36    66    1
   114    37    52    1
   115    37    67    1
   116    38    53    1
   117    38    68    1
   118    42    48    1
   119    42    72    1
   120    43    44    2
   121    60    73    1
   122    61    74    1
   123    39    69    1
   124    39    57    1
   125    40    70    1
   126    40    50    1
   127    41    71    1
   128    41    49    1
