@<TRIPOS>MOLECULE
*****
 123 128 0 0 0
SMALL
GASTEIGER

@<TRIPOS>ATOM
     1 C         4.971797   2.23921   0.528131 C.3        1 UNL1     0.0009
     2 C         6.358935   3.116078   -0.334417 C.2        1 UNL1     -0.0787
     3 C         7.671189   3.094594   -0.945624 C.2        1 UNL1     -0.0649
     4 C         8.456981   4.348974   -1.767463 C.2        1 UNL1     -0.0542
     5 C         9.482774   4.668388   -2.690935 C.2        1 UNL1     0.0115
     6 C         10.70124   4.093251   -3.464164 C.3        1 UNL1     -0.0348
     7 C         9.460666   6.102909   -3.411108 C.2        1 UNL1     0.2441
     8 O         10.185213   7.028644   -3.072623 O.2        1 UNL1     -0.2702
     9 N         8.743962   6.144188   -4.619736 N.am        1 UNL1     -0.2772
     10 C         7.417981   6.424827   -4.38238 C.2        1 UNL1     0.1049
     11 C         6.65786   5.399672   -4.042533 C.2        1 UNL1     0.0801
     12 C         5.913095   7.998378   -3.15088 C.ar        1 UNL1     0.0753
     13 C         5.247709   6.838469   -2.640507 C.ar        1 UNL1     0.0305
     14 C         5.516541   5.505153   -3.174408 C.2        1 UNL1     0.0924
     15 N         6.914123   4.081108   -4.089932 N.pl3        1 UNL1     -0.3170
     16 C         5.695583   3.384967   -3.772441 C.3        1 UNL1     0.1275
     17 N         4.929726   4.344771   -2.894966 N.2        1 UNL1     -0.2557
     18 C         4.894933   3.262219   -5.065343 C.3        1 UNL1     0.0016
     19 C         5.758836   2.571757   -6.108666 C.3        1 UNL1     0.0026
     20 N         6.143596   1.260847   -5.604183 N.3        1 UNL1     -0.3018
     21 C         6.866003   1.272339   -4.330462 C.3        1 UNL1     0.0026
     22 C         5.97807   1.966231   -3.296061 C.3        1 UNL1     0.0016
     23 C         6.711047   0.406715   -6.62844 C.3        1 UNL1     0.0012
     24 C         5.627249   -0.030532   -7.626415 C.3        1 UNL1     -0.0339
     25 C         5.885611   -1.453002   -8.149755 C.3        1 UNL1     -0.0615
     26 C         4.253716   0.089881   -6.989478 C.3        1 UNL1     -0.0615
     27 C         5.565119   9.277188   -2.722306 C.ar        1 UNL1     0.1347
     28 C         4.545069   9.523222   -1.820633 C.ar        1 UNL1     0.0342
     29 C         3.936944   8.363518   -1.294861 C.ar        1 UNL1     0.1435
     30 C         4.29956   7.074571   -1.68773 C.ar        1 UNL1     0.0774
     31 O         2.854874   8.438518   -0.489562 O.3        1 UNL1     -0.4436
     32 C         2.261545   7.133028   -0.556853 C.3        1 UNL1     0.3143
     33 C         3.387017   6.207308   -0.972268 C.2        1 UNL1     0.2504
     34 C         3.950962   10.868095   -1.506862 C.3        1 UNL1     -0.0327
     35 O         1.889456   6.764963   0.777062 O.2        1 UNL1     -0.4528
     36 C         -1.133474   4.496362   0.425741 C.3        1 UNL1     0.0854
     37 C         -1.278289   3.146663   -0.377294 C.3        1 UNL1     0.0236
     38 C         -1.787583   1.896481   0.488389 C.3        1 UNL1     0.1131
     39 C         -1.069588   1.541396   1.852452 C.3        1 UNL1     0.0200
     40 C         0.594694   1.564689   1.96227 C.3        1 UNL1     0.0661
     41 C         1.671779   0.807318   0.892743 C.3        1 UNL1     0.0091
     42 C         3.358866   1.292906   0.360441 C.3        1 UNL1     0.0661
     43 C         6.925005   7.800461   -4.218179 C.2        1 UNL1     0.2131
     44 O         7.266669   8.675978   -4.992435 O.2        1 UNL1     -0.2851
     45 O         6.292795   10.34944   -3.234362 O.3        1 UNL1     -0.5056
     46 O         3.512993   5.024863   -0.744652 O.2        1 UNL1     -0.2836
     47 C         5.346716   1.962653   2.008987 C.3        1 UNL1     -0.0566
     48 O         3.937026   -0.056386   0.570816 O.3        1 UNL1     -0.3909
     49 C         0.916687   0.398858   -0.352444 C.3        1 UNL1     -0.0577
     50 O         1.058109   2.862527   2.276256 O.3        1 UNL1     -0.3910
     51 O         -1.297197   4.402585   1.822821 O.3        1 UNL1     -0.3753
     52 C         -0.175696   3.002529   -1.476596 C.3        1 UNL1     -0.0564
     53 O         -2.249238   0.736995   -0.345154 O.3        1 UNL1     -0.4608
     54 C         -3.085549   -0.262973   0.077431 C.2        1 UNL1     0.3042
     55 O         -2.937195   -1.474864   -0.074716 O.2        1 UNL1     -0.2512
     56 C         -4.270977   0.233093   0.855501 C.3        1 UNL1     0.0332
     57 C         -1.903941   2.230421   3.030278 C.3        1 UNL1     -0.0567
     58 C         1.214346   7.186559   -1.693531 C.3        1 UNL1     0.0210
     59 C         -1.700826   5.612923   2.461594 C.3        1 UNL1     0.0372
     60 C         0.137489   5.234436   0.191091 C.2        1 UNL1     -0.0208
     61 C         0.967027   5.823331   1.053538 C.2        1 UNL1     0.0882
     62 H         4.40032   3.175187   0.519553 H        1 UNL1     0.0365
     63 H         5.988531   4.143282   -0.323422 H        1 UNL1     0.0576
     64 H         8.228464   2.163736   -1.072334 H        1 UNL1     0.0615
     65 H         7.87009   5.235514   -1.512339 H        1 UNL1     0.0622
     66 H         -1.932659   5.139468   0.031072 H        1 UNL1     0.0645
     67 H         -2.143062   3.320988   -1.040874 H        1 UNL1     0.0362
     68 H         -2.786182   2.263089   0.771092 H        1 UNL1     0.0741
     69 H         -1.31041   0.520411   2.117034 H        1 UNL1     0.0359
     70 H         0.732198   0.988207   2.897054 H        1 UNL1     0.0600
     71 H         1.795223   -0.168746   1.401679 H        1 UNL1     0.0348
     72 H         3.16548   1.841908   1.293454 H        1 UNL1     0.0602
     73 H         0.279393   5.362317   -0.853302 H        1 UNL1     0.0628
     74 H         0.924809   5.694632   2.135616 H        1 UNL1     0.1022
     75 H         11.362233   3.511451   -2.777409 H        1 UNL1     0.0279
     76 H         10.481954   3.370195   -4.246578 H        1 UNL1     0.0279
     77 H         11.389398   4.875711   -3.816154 H        1 UNL1     0.0279
     78 H         8.787915   5.234703   -5.07469 H        1 UNL1     0.1553
     79 H         7.642794   3.67503   -4.647671 H        1 UNL1     0.1484
     80 H         3.977926   2.694833   -4.865498 H        1 UNL1     0.0317
     81 H         4.581416   4.247579   -5.426484 H        1 UNL1     0.0317
     82 H         6.643782   3.172031   -6.366455 H        1 UNL1     0.0428
     83 H         5.16934   2.496162   -7.022903 H        1 UNL1     0.0428
     84 H         7.072807   0.273229   -3.934454 H        1 UNL1     0.0428
     85 H         7.859445   1.731533   -4.428086 H        1 UNL1     0.0428
     86 H         6.477496   1.838629   -2.353575 H        1 UNL1     0.0317
     87 H         5.044627   1.404944   -3.16669 H        1 UNL1     0.0317
     88 H         7.472874   0.982649   -7.169932 H        1 UNL1     0.0429
     89 H         7.217317   -0.46185   -6.187919 H        1 UNL1     0.0429
     90 H         5.623911   0.659719   -8.478328 H        1 UNL1     0.0308
     91 H         6.919893   -1.761231   -7.969871 H        1 UNL1     0.0233
     92 H         5.210377   -2.168169   -7.674146 H        1 UNL1     0.0233
     93 H         5.711184   -1.538987   -9.229114 H        1 UNL1     0.0233
     94 H         4.074872   -0.754387   -6.314896 H        1 UNL1     0.0233
     95 H         4.193975   1.009892   -6.401282 H        1 UNL1     0.0233
     96 H         3.463164   0.102001   -7.745023 H        1 UNL1     0.0233
     97 H         4.358182   11.651078   -2.139587 H        1 UNL1     0.0280
     98 H         2.864834   10.88792   -1.665571 H        1 UNL1     0.0280
     99 H         4.16102   11.12837   -0.456515 H        1 UNL1     0.0280
     100 H         7.227039   10.244883   -3.191035 H        1 UNL1     0.2922
     101 H         4.81784   2.65983   2.658518 H        1 UNL1     0.0236
     102 H         6.421361   1.971805   2.18798 H        1 UNL1     0.0236
     103 H         5.015073   0.964567   2.340697 H        1 UNL1     0.0236
     104 H         3.195165   -0.690371   0.622547 H        1 UNL1     0.2098
     105 H         0.68509   1.219549   -1.026714 H        1 UNL1     0.0234
     106 H         1.361984   -0.429042   -0.904004 H        1 UNL1     0.0234
     107 H         0.0   -0.0   0.0 H        1 UNL1     0.0234
     108 H         2.019502   2.876585   2.1051 H        1 UNL1     0.2098
     109 H         0.812332   3.325102   -1.119582 H        1 UNL1     0.0234
     110 H         -0.104745   1.988535   -1.884671 H        1 UNL1     0.0234
     111 H         -0.393704   3.627478   -2.352871 H        1 UNL1     0.0234
     112 H         -4.882065   -0.613545   1.182793 H        1 UNL1     0.0342
     113 H         -3.975726   0.851983   1.70146 H        1 UNL1     0.0342
     114 H         -4.884685   0.853125   0.187602 H        1 UNL1     0.0342
     115 H         -1.882549   1.630877   3.950754 H        1 UNL1     0.0234
     116 H         -1.564145   3.23613   3.285497 H        1 UNL1     0.0234
     117 H         -2.988529   2.277518   2.831802 H        1 UNL1     0.0234
     118 H         0.181109   7.131749   -1.308274 H        1 UNL1     0.0309
     119 H         1.313561   8.07324   -2.327689 H        1 UNL1     0.0309
     120 H         1.279285   6.324091   -2.365869 H        1 UNL1     0.0309
     121 H         -0.798957   6.174199   2.704407 H        1 UNL1     0.0524
     122 H         -2.319395   6.246646   1.804475 H        1 UNL1     0.0524
     123 H         -2.259849   5.392018   3.366463 H        1 UNL1     0.0524
@<TRIPOS>BOND
     1     1     2    1
     2     1    42    1
     3     2     3    2
     4     3     4    1
     5     4     5    2
     6     5     7    1
     7     6    75    1
     8     6    76    1
     9     6    77    1
    10     7     9   am
    11     9    10    1
    12    10    11    2
    13    10    43    1
    14    11    14    1
    15    11    15    1
    16    12    13   ar
    17    12    27   ar
    18    12    43    1
    19    13    14    1
    20    13    30   ar
    21    14    17    2
    22    15    16    1
    23    16    17    1
    24    16    18    1
    25    16    22    1
    26    18    19    1
    27    19    20    1
    28    20    21    1
    29    21    22    1
    30    23    24    1
    31    23    88    1
    32    23    89    1
    33    24    25    1
    34    24    26    1
    35    24    90    1
    36    25    91    1
    37    25    92    1
    38    25    93    1
    39    26    94    1
    40    26    95    1
    41    26    96    1
    42    27    28   ar
    43    28    29   ar
    44    29    30   ar
    45    29    31    1
    46    30    33    1
    47    31    32    1
    48    32    33    1
    49    32    35    1
    50    34    97    1
    51    34    98    1
    52    34    99    1
    53    35    61    1
    54    36    37    1
    55    36    60    1
    56    37    38    1
    57    38    39    1
    58    39    40    1
    59    40    41    1
    60    41    42    1
    61    45   100    1
    62    47   101    1
    63    47   102    1
    64    47   103    1
    65    48   104    1
    66    49   105    1
    67    49   106    1
    68    49   107    1
    69    50   108    1
    70    51    59    1
    71    52   109    1
    72    52   110    1
    73    52   111    1
    74    53    54    1
    75    54    55    2
    76    54    56    1
    77    56   112    1
    78    56   113    1
    79    56   114    1
    80    57   115    1
    81    57   116    1
    82    57   117    1
    83    58   118    1
    84    58   119    1
    85    58   120    1
    86    59   121    1
    87    59   122    1
    88    59   123    1
    89    60    61    2
    90     1    47    1
    91     1    62    1
    92     2    63    1
    93     3    64    1
    94     4    65    1
    95     5     6    1
    96     7     8    2
    97     9    78    1
    98    15    79    1
    99    18    80    1
   100    18    81    1
   101    19    82    1
   102    19    83    1
   103    20    23    1
   104    21    84    1
   105    21    85    1
   106    22    86    1
   107    22    87    1
   108    27    45    1
   109    28    34    1
   110    32    58    1
   111    33    46    2
   112    36    51    1
   113    36    66    1
   114    37    52    1
   115    37    67    1
   116    38    53    1
   117    38    68    1
   118    42    48    1
   119    42    72    1
   120    43    44    2
   121    60    73    1
   122    61    74    1
   123    39    69    1
   124    39    57    1
   125    40    70    1
   126    40    50    1
   127    41    71    1
   128    41    49    1
