@<TRIPOS>MOLECULE
*****
 123 128 0 0 0
SMALL
GASTEIGER

@<TRIPOS>ATOM
     1 C         3.92808   -3.441957   -1.324094 C.3        1 UNL1     0.0009
     2 C         4.298989   -4.932289   -2.362543 C.2        1 UNL1     -0.0787
     3 C         4.614427   -6.341162   -2.470346 C.2        1 UNL1     -0.0649
     4 C         4.740425   -7.274617   -3.877166 C.2        1 UNL1     -0.0542
     5 C         4.72139   -8.589811   -4.403456 C.2        1 UNL1     0.0115
     6 C         4.731078   -10.095894   -4.022745 C.3        1 UNL1     -0.0348
     7 C         4.480416   -8.793288   -5.977469 C.2        1 UNL1     0.2441
     8 O         5.384706   -9.044686   -6.762061 O.2        1 UNL1     -0.2702
     9 N         3.132497   -8.922335   -6.355109 N.am        1 UNL1     -0.2772
     10 C         2.580838   -7.685089   -6.596389 C.2        1 UNL1     0.1049
     11 C         2.152641   -7.022195   -5.537407 C.2        1 UNL1     0.0801
     12 C         2.975997   -5.542624   -7.825626 C.ar        1 UNL1     0.0753
     13 C         2.704989   -4.874425   -6.589231 C.ar        1 UNL1     0.0305
     14 C         2.155877   -5.587781   -5.438297 C.2        1 UNL1     0.0924
     15 N         1.972223   -7.438749   -4.272315 N.pl3        1 UNL1     -0.3170
     16 C         1.325723   -6.376823   -3.548019 C.3        1 UNL1     0.1275
     17 N         1.754978   -5.117551   -4.260549 N.2        1 UNL1     -0.2557
     18 C         -0.17434   -6.511038   -3.791946 C.3        1 UNL1     0.0016
     19 C         -0.610888   -7.908072   -3.38047 C.3        1 UNL1     0.0026
     20 N         -0.289306   -8.103232   -1.973514 N.3        1 UNL1     -0.3018
     21 C         1.123867   -7.933278   -1.629383 C.3        1 UNL1     0.0026
     22 C         1.539907   -6.521794   -2.047134 C.3        1 UNL1     0.0016
     23 C         -0.926444   -9.275164   -1.406702 C.3        1 UNL1     0.0012
     24 C         -2.441747   -9.054532   -1.276577 C.3        1 UNL1     -0.0339
     25 C         -3.226801   -9.962412   -2.237566 C.3        1 UNL1     -0.0615
     26 C         -2.875781   -9.258007   0.164601 C.3        1 UNL1     -0.0615
     27 C         3.384476   -4.835297   -8.953878 C.ar        1 UNL1     0.1347
     28 C         3.518102   -3.458491   -8.978325 C.ar        1 UNL1     0.0342
     29 C         3.293364   -2.826991   -7.736607 C.ar        1 UNL1     0.1435
     30 C         2.918762   -3.526532   -6.588767 C.ar        1 UNL1     0.0774
     31 O         3.277166   -1.480926   -7.623233 O.3        1 UNL1     -0.4436
     32 C         2.573764   -1.228665   -6.397483 C.3        1 UNL1     0.3143
     33 C         2.72256   -2.500028   -5.58649 C.2        1 UNL1     0.2504
     34 C         3.70557   -2.612521   -10.206858 C.3        1 UNL1     -0.0327
     35 O         3.289357   -0.202232   -5.699188 O.2        1 UNL1     -0.4528
     36 C         0.690043   1.690026   -3.681513 C.3        1 UNL1     0.0854
     37 C         -0.317715   1.147292   -2.596438 C.3        1 UNL1     0.0236
     38 C         -0.242953   1.886133   -1.175076 C.3        1 UNL1     0.1131
     39 C         1.153935   2.061292   -0.453762 C.3        1 UNL1     0.0200
     40 C         2.243783   0.799428   -0.405094 C.3        1 UNL1     0.0661
     41 C         1.900165   -0.792566   0.069343 C.3        1 UNL1     0.0091
     42 C         2.616047   -2.383864   -0.49695 C.3        1 UNL1     0.0661
     43 C         2.721402   -7.003134   -7.891585 C.2        1 UNL1     0.2131
     44 O         2.531246   -7.606889   -8.931805 O.2        1 UNL1     -0.2851
     45 O         3.671817   -5.566476   -10.104639 O.3        1 UNL1     -0.5056
     46 O         2.705407   -2.632564   -4.383164 O.2        1 UNL1     -0.2836
     47 C         5.226023   -2.913446   -0.656261 C.3        1 UNL1     -0.0566
     48 O         2.819764   -2.910981   0.874095 O.3        1 UNL1     -0.3909
     49 C         0.399463   -0.975146   0.11463 C.3        1 UNL1     -0.0577
     50 O         3.05646   0.794237   -1.561491 O.3        1 UNL1     -0.3910
     51 O         1.641317   2.625286   -3.225666 O.3        1 UNL1     -0.3753
     52 C         -0.530171   -0.396871   -2.720419 C.3        1 UNL1     -0.0564
     53 O         -1.421542   1.60519   -0.289455 O.3        1 UNL1     -0.4608
     54 C         -1.527398   1.960542   1.029806 C.2        1 UNL1     0.3042
     55 O         -2.459787   2.553402   1.571106 O.2        1 UNL1     -0.2512
     56 C         -0.371431   1.499828   1.871351 C.3        1 UNL1     0.0332
     57 C         1.71102   3.513232   -0.827526 C.3        1 UNL1     -0.0567
     58 C         1.085105   -1.049906   -6.776257 C.3        1 UNL1     0.0210
     59 C         1.419786   3.966059   -3.660543 C.3        1 UNL1     0.0372
     60 C         1.441035   0.64056   -4.422993 C.2        1 UNL1     -0.0208
     61 C         2.733905   0.564887   -4.741593 C.2        1 UNL1     0.0882
     62 H         3.789612   -2.859801   -2.243133 H        1 UNL1     0.0365
     63 H         4.317016   -4.48655   -3.359269 H        1 UNL1     0.0576
     64 H         4.641815   -6.990431   -1.592389 H        1 UNL1     0.0615
     65 H         4.783648   -6.532731   -4.679176 H        1 UNL1     0.0622
     66 H         0.052534   2.187232   -4.426103 H        1 UNL1     0.0645
     67 H         -1.306766   1.474061   -2.961897 H        1 UNL1     0.0362
     68 H         -0.543625   2.900417   -1.478961 H        1 UNL1     0.0741
     69 H         0.981141   2.265921   0.594416 H        1 UNL1     0.0359
     70 H         2.912628   1.156136   0.401421 H        1 UNL1     0.0600
     71 H         2.143792   -0.729633   1.148066 H        1 UNL1     0.0348
     72 H         3.339106   -1.606728   -0.784284 H        1 UNL1     0.0602
     73 H         0.754697   -0.066116   -4.81897 H        1 UNL1     0.0628
     74 H         3.508865   1.213876   -4.33234 H        1 UNL1     0.1022
     75 H         5.52327   -10.303225   -3.263482 H        1 UNL1     0.0279
     76 H         3.836045   -10.479573   -3.538208 H        1 UNL1     0.0279
     77 H         5.051837   -10.742302   -4.852788 H        1 UNL1     0.0279
     78 H         2.604552   -9.350683   -5.597567 H        1 UNL1     0.1553
     79 H         1.890896   -8.403886   -4.00996 H        1 UNL1     0.1484
     80 H         -0.700655   -5.740837   -3.215277 H        1 UNL1     0.0317
     81 H         -0.416829   -6.334359   -4.845338 H        1 UNL1     0.0317
     82 H         -0.140825   -8.681981   -4.004983 H        1 UNL1     0.0428
     83 H         -1.68311   -7.98277   -3.564345 H        1 UNL1     0.0428
     84 H         1.325829   -8.006235   -0.55621 H        1 UNL1     0.0428
     85 H         1.750019   -8.719822   -2.072778 H        1 UNL1     0.0428
     86 H         2.533698   -6.386991   -1.662172 H        1 UNL1     0.0317
     87 H         0.951072   -5.778853   -1.495403 H        1 UNL1     0.0317
     88 H         -0.753355   -10.120153   -2.085914 H        1 UNL1     0.0429
     89 H         -0.480836   -9.543048   -0.440035 H        1 UNL1     0.0429
     90 H         -2.674378   -8.009857   -1.514798 H        1 UNL1     0.0308
     91 H         -2.650899   -10.854426   -2.501669 H        1 UNL1     0.0233
     92 H         -4.176332   -10.267588   -1.791619 H        1 UNL1     0.0233
     93 H         -3.478948   -9.456707   -3.177523 H        1 UNL1     0.0233
     94 H         -3.964422   -9.366081   0.219526 H        1 UNL1     0.0233
     95 H         -2.425767   -10.170756   0.565025 H        1 UNL1     0.0233
     96 H         -2.580192   -8.413488   0.793397 H        1 UNL1     0.0233
     97 H         2.882127   -1.920114   -10.354322 H        1 UNL1     0.0280
     98 H         4.611208   -1.994624   -10.149585 H        1 UNL1     0.0280
     99 H         3.774408   -3.261763   -11.095025 H        1 UNL1     0.0280
     100 H         4.242965   -6.301969   -9.968763 H        1 UNL1     0.2922
     101 H         5.563625   -2.013534   -1.169915 H        1 UNL1     0.0236
     102 H         6.011266   -3.665816   -0.590568 H        1 UNL1     0.0236
     103 H         5.055269   -2.593789   0.385303 H        1 UNL1     0.0236
     104 H         1.948816   -3.197156   1.212507 H        1 UNL1     0.2098
     105 H         -0.001824   -1.594988   -0.683228 H        1 UNL1     0.0234
     106 H         0.009266   -1.300975   1.07874 H        1 UNL1     0.0234
     107 H         0.0   0.0   0.0 H        1 UNL1     0.0234
     108 H         3.346327   -0.126749   -1.708222 H        1 UNL1     0.2098
     109 H         -0.947774   -0.682301   -3.696047 H        1 UNL1     0.0234
     110 H         0.381258   -0.973453   -2.529125 H        1 UNL1     0.0234
     111 H         -1.242465   -0.768794   -1.971915 H        1 UNL1     0.0234
     112 H         0.39512   1.047295   1.234988 H        1 UNL1     0.0342
     113 H         0.045642   2.307129   2.471483 H        1 UNL1     0.0342
     114 H         -0.736069   0.726356   2.561239 H        1 UNL1     0.0342
     115 H         1.114237   3.988569   -1.618154 H        1 UNL1     0.0234
     116 H         1.748671   4.205042   0.016293 H        1 UNL1     0.0234
     117 H         2.709671   3.493853   -1.296847 H        1 UNL1     0.0234
     118 H         0.74694   -0.006784   -6.647621 H        1 UNL1     0.0309
     119 H         0.859126   -1.376454   -7.796306 H        1 UNL1     0.0309
     120 H         0.413777   -1.615665   -6.121016 H        1 UNL1     0.0309
     121 H         0.573796   4.359671   -3.097759 H        1 UNL1     0.0524
     122 H         2.285077   4.619443   -3.459549 H        1 UNL1     0.0524
     123 H         1.203353   3.985045   -4.724917 H        1 UNL1     0.0524
@<TRIPOS>BOND
     1     1     2    1
     2     1    42    1
     3     2     3    2
     4     3     4    1
     5     4     5    2
     6     5     7    1
     7     6    75    1
     8     6    76    1
     9     6    77    1
    10     7     9   am
    11     9    10    1
    12    10    11    2
    13    10    43    1
    14    11    14    1
    15    11    15    1
    16    12    13   ar
    17    12    27   ar
    18    12    43    1
    19    13    14    1
    20    13    30   ar
    21    14    17    2
    22    15    16    1
    23    16    17    1
    24    16    18    1
    25    16    22    1
    26    18    19    1
    27    19    20    1
    28    20    21    1
    29    21    22    1
    30    23    24    1
    31    23    88    1
    32    23    89    1
    33    24    25    1
    34    24    26    1
    35    24    90    1
    36    25    91    1
    37    25    92    1
    38    25    93    1
    39    26    94    1
    40    26    95    1
    41    26    96    1
    42    27    28   ar
    43    28    29   ar
    44    29    30   ar
    45    29    31    1
    46    30    33    1
    47    31    32    1
    48    32    33    1
    49    32    35    1
    50    34    97    1
    51    34    98    1
    52    34    99    1
    53    35    61    1
    54    36    37    1
    55    36    60    1
    56    37    38    1
    57    38    39    1
    58    39    40    1
    59    40    41    1
    60    41    42    1
    61    45   100    1
    62    47   101    1
    63    47   102    1
    64    47   103    1
    65    48   104    1
    66    49   105    1
    67    49   106    1
    68    49   107    1
    69    50   108    1
    70    51    59    1
    71    52   109    1
    72    52   110    1
    73    52   111    1
    74    53    54    1
    75    54    55    2
    76    54    56    1
    77    56   112    1
    78    56   113    1
    79    56   114    1
    80    57   115    1
    81    57   116    1
    82    57   117    1
    83    58   118    1
    84    58   119    1
    85    58   120    1
    86    59   121    1
    87    59   122    1
    88    59   123    1
    89    60    61    2
    90     1    47    1
    91     1    62    1
    92     2    63    1
    93     3    64    1
    94     4    65    1
    95     5     6    1
    96     7     8    2
    97     9    78    1
    98    15    79    1
    99    18    80    1
   100    18    81    1
   101    19    82    1
   102    19    83    1
   103    20    23    1
   104    21    84    1
   105    21    85    1
   106    22    86    1
   107    22    87    1
   108    27    45    1
   109    28    34    1
   110    32    58    1
   111    33    46    2
   112    36    51    1
   113    36    66    1
   114    37    52    1
   115    37    67    1
   116    38    53    1
   117    38    68    1
   118    42    48    1
   119    42    72    1
   120    43    44    2
   121    60    73    1
   122    61    74    1
   123    39    69    1
   124    39    57    1
   125    40    70    1
   126    40    50    1
   127    41    71    1
   128    41    49    1
