@<TRIPOS>MOLECULE
*****
 123 128 0 0 0
SMALL
GASTEIGER

@<TRIPOS>ATOM
     1 C         4.982392   2.086772   0.905769 C.3        1 UNL1     0.0009
     2 C         6.412741   3.018417   0.182459 C.2        1 UNL1     -0.0787
     3 C         7.741152   3.031599   -0.393038 C.2        1 UNL1     -0.0649
     4 C         8.57775   4.348972   -1.049535 C.2        1 UNL1     -0.0542
     5 C         9.636381   4.742606   -1.904773 C.2        1 UNL1     0.0115
     6 C         10.863432   4.225991   -2.705258 C.3        1 UNL1     -0.0348
     7 C         9.66669   6.248073   -2.461224 C.2        1 UNL1     0.2441
     8 O         10.40159   7.11214   -2.003146 O.2        1 UNL1     -0.2702
     9 N         8.985962   6.440815   -3.675972 N.am        1 UNL1     -0.2772
     10 C         7.660276   6.726808   -3.443406 C.2        1 UNL1     0.1049
     11 C         6.868208   5.689839   -3.239578 C.2        1 UNL1     0.0801
     12 C         6.156003   8.191929   -2.084026 C.ar        1 UNL1     0.0753
     13 C         5.45074   6.99983   -1.723317 C.ar        1 UNL1     0.0305
     14 C         5.705128   5.727391   -2.39506 C.2        1 UNL1     0.0924
     15 N         7.096439   4.37857   -3.42669 N.pl3        1 UNL1     -0.3170
     16 C         5.854183   3.682516   -3.220383 C.3        1 UNL1     0.1275
     17 N         5.084984   4.558381   -2.261781 N.2        1 UNL1     -0.2557
     18 C         5.088341   3.723725   -4.53928 C.3        1 UNL1     0.0016
     19 C         5.966237   3.131335   -5.630134 C.3        1 UNL1     0.0026
     20 N         6.307255   1.763397   -5.264786 N.3        1 UNL1     -0.3018
     21 C         6.992987   1.615743   -3.979353 C.3        1 UNL1     0.0026
     22 C         6.091409   2.213132   -2.897606 C.3        1 UNL1     0.0016
     23 C         6.884719   1.013755   -6.362609 C.3        1 UNL1     0.0012
     24 C         5.820505   0.717013   -7.430854 C.3        1 UNL1     -0.0339
     25 C         5.854242   1.757365   -8.562484 C.3        1 UNL1     -0.0615
     26 C         5.996758   -0.694335   -7.963595 C.3        1 UNL1     -0.0615
     27 C         5.824328   9.423857   -1.52504 C.ar        1 UNL1     0.1347
     28 C         4.784592   9.594288   -0.628406 C.ar        1 UNL1     0.0342
     29 C         4.136118   8.399246   -0.250889 C.ar        1 UNL1     0.1435
     30 C         4.481175   7.152929   -0.77515 C.ar        1 UNL1     0.0774
     31 O         3.03337   8.411969   0.529363 O.3        1 UNL1     -0.4436
     32 C         2.413424   7.137298   0.301867 C.3        1 UNL1     0.3143
     33 C         3.529533   6.235133   -0.184562 C.2        1 UNL1     0.2504
     34 C         4.211699   10.910752   -0.182519 C.3        1 UNL1     -0.0327
     35 O         1.995244   6.633462   1.576437 O.2        1 UNL1     -0.4528
     36 C         -1.065925   4.494535   0.896496 C.3        1 UNL1     0.0854
     37 C         -1.217573   3.246008   -0.055191 C.3        1 UNL1     0.0236
     38 C         -1.779016   1.920989   0.652516 C.3        1 UNL1     0.1131
     39 C         -1.108402   1.399243   1.986805 C.3        1 UNL1     0.0200
     40 C         0.552163   1.3683   2.141743 C.3        1 UNL1     0.0661
     41 C         1.642368   0.706959   1.022953 C.3        1 UNL1     0.0091
     42 C         3.354346   1.205767   0.591994 C.3        1 UNL1     0.0661
     43 C         7.19341   8.087826   -3.14006 C.2        1 UNL1     0.2131
     44 O         7.576413   9.034712   -3.802973 O.2        1 UNL1     -0.2851
     45 O         6.589946   10.527482   -1.895554 O.3        1 UNL1     -0.5056
     46 O         3.622707   5.031972   -0.086703 O.2        1 UNL1     -0.2836
     47 C         5.308553   1.638776   2.355908 C.3        1 UNL1     -0.0566
     48 O         3.896204   -0.172653   0.665915 O.3        1 UNL1     -0.3909
     49 C         0.914358   0.457874   -0.279142 C.3        1 UNL1     -0.0577
     50 O         1.03505   2.611359   2.610091 O.3        1 UNL1     -0.3910
     51 O         -1.271605   4.250979   2.269743 O.3        1 UNL1     -0.3753
     52 C         -0.087434   3.196595   -1.134679 C.3        1 UNL1     -0.0564
     53 O         -2.242208   0.872806   -0.316551 O.3        1 UNL1     -0.4608
     54 C         -2.405179   -0.457557   -0.031063 C.2        1 UNL1     0.3042
     55 O         -1.737137   -1.399733   -0.455166 O.2        1 UNL1     -0.2512
     56 C         -3.501933   -0.730307   0.958609 C.3        1 UNL1     0.0332
     57 C         -1.960649   1.974586   3.211889 C.3        1 UNL1     -0.0567
     58 C         1.40063   7.342585   -0.848626 C.3        1 UNL1     0.0210
     59 C         -1.748777   5.371964   3.012417 C.3        1 UNL1     0.0372
     60 C         0.227278   5.221768   0.778515 C.2        1 UNL1     -0.0208
     61 C         1.044639   5.690575   1.722382 C.2        1 UNL1     0.0882
     62 H         4.432278   3.032058   0.986518 H        1 UNL1     0.0365
     63 H         6.065029   4.047111   0.298027 H        1 UNL1     0.0576
     64 H         8.281059   2.106719   -0.607988 H        1 UNL1     0.0615
     65 H         8.003589   5.216365   -0.712709 H        1 UNL1     0.0622
     66 H         -1.839039   5.197278   0.555185 H        1 UNL1     0.0645
     67 H         -2.058924   3.514389   -0.717505 H        1 UNL1     0.0362
     68 H         -2.776927   2.279131   0.948203 H        1 UNL1     0.0741
     69 H         -1.379265   0.361655   2.129819 H        1 UNL1     0.0359
     70 H         0.650047   0.688692   3.00985 H        1 UNL1     0.0600
     71 H         1.729535   -0.322203   1.423184 H        1 UNL1     0.0348
     72 H         3.14655   1.652913   1.574947 H        1 UNL1     0.0602
     73 H         0.401814   5.460752   -0.241128 H        1 UNL1     0.0628
     74 H         0.968626   5.444099   2.781962 H        1 UNL1     0.1022
     75 H         10.976379   3.122044   -2.58044 H        1 UNL1     0.0279
     76 H         10.818682   4.336136   -3.786431 H        1 UNL1     0.0279
     77 H         11.819205   4.588934   -2.299708 H        1 UNL1     0.0279
     78 H         9.022752   5.586408   -4.22798 H        1 UNL1     0.1553
     79 H         7.831596   4.018433   -4.007016 H        1 UNL1     0.1484
     80 H         4.153641   3.161008   -4.427691 H        1 UNL1     0.0317
     81 H         4.807203   4.750567   -4.796589 H        1 UNL1     0.0317
     82 H         6.871285   3.733944   -5.796463 H        1 UNL1     0.0428
     83 H         5.401618   3.172194   -6.562114 H        1 UNL1     0.0428
     84 H         7.16618   0.574073   -3.691708 H        1 UNL1     0.0428
     85 H         7.998749   2.057734   -3.999441 H        1 UNL1     0.0428
     86 H         6.560704   1.969534   -1.962507 H        1 UNL1     0.0317
     87 H         5.142435   1.664683   -2.855778 H        1 UNL1     0.0317
     88 H         7.674309   1.626659   -6.816691 H        1 UNL1     0.0429
     89 H         7.358802   0.089318   -6.008439 H        1 UNL1     0.0429
     90 H         4.828097   0.739637   -6.965207 H        1 UNL1     0.0308
     91 H         6.839944   1.798638   -9.035548 H        1 UNL1     0.0233
     92 H         5.101873   1.527921   -9.320709 H        1 UNL1     0.0233
     93 H         5.629952   2.769912   -8.205723 H        1 UNL1     0.0233
     94 H         5.370739   -0.844447   -8.849825 H        1 UNL1     0.0233
     95 H         7.038251   -0.856288   -8.255188 H        1 UNL1     0.0233
     96 H         5.719754   -1.441192   -7.214302 H        1 UNL1     0.0233
     97 H         3.374922   10.781601   0.497448 H        1 UNL1     0.0280
     98 H         4.947297   11.520197   0.358524 H        1 UNL1     0.0280
     99 H         3.859296   11.476256   -1.060649 H        1 UNL1     0.0280
     100 H         6.093638   11.254008   -2.229412 H        1 UNL1     0.2922
     101 H         4.446317   1.129796   2.786192 H        1 UNL1     0.0236
     102 H         5.659521   2.454028   2.987705 H        1 UNL1     0.0236
     103 H         6.118666   0.891113   2.386061 H        1 UNL1     0.0236
     104 H         4.262553   -0.297841   1.563182 H        1 UNL1     0.2098
     105 H         0.677808   1.358121   -0.840757 H        1 UNL1     0.0234
     106 H         1.38357   -0.280531   -0.929161 H        1 UNL1     0.0234
     107 H         0.0   -0.0   0.0 H        1 UNL1     0.0234
     108 H         0.838682   3.276546   1.922535 H        1 UNL1     0.2098
     109 H         0.914287   3.142215   -0.686004 H        1 UNL1     0.0234
     110 H         -0.212668   2.37814   -1.85175 H        1 UNL1     0.0234
     111 H         -0.084685   4.099748   -1.759382 H        1 UNL1     0.0234
     112 H         -3.573446   -1.805669   1.147895 H        1 UNL1     0.0342
     113 H         -3.362307   -0.178608   1.887036 H        1 UNL1     0.0342
     114 H         -4.452645   -0.402265   0.516229 H        1 UNL1     0.0342
     115 H         -3.009805   1.651406   3.167001 H        1 UNL1     0.0234
     116 H         -1.572448   1.694388   4.193132 H        1 UNL1     0.0234
     117 H         -2.074687   3.072092   3.191466 H        1 UNL1     0.0234
     118 H         0.440733   7.751815   -0.487885 H        1 UNL1     0.0309
     119 H         1.784279   7.982358   -1.649692 H        1 UNL1     0.0309
     120 H         1.110037   6.400348   -1.325965 H        1 UNL1     0.0309
     121 H         -0.99096   6.152782   2.954168 H        1 UNL1     0.0524
     122 H         -2.68254   5.783783   2.59465 H        1 UNL1     0.0524
     123 H         -1.919335   5.091663   4.048002 H        1 UNL1     0.0524
@<TRIPOS>BOND
     1     1     2    1
     2     1    42    1
     3     2     3    2
     4     3     4    1
     5     4     5    2
     6     5     7    1
     7     6    75    1
     8     6    76    1
     9     6    77    1
    10     7     9   am
    11     9    10    1
    12    10    11    2
    13    10    43    1
    14    11    14    1
    15    11    15    1
    16    12    13   ar
    17    12    27   ar
    18    12    43    1
    19    13    14    1
    20    13    30   ar
    21    14    17    2
    22    15    16    1
    23    16    17    1
    24    16    18    1
    25    16    22    1
    26    18    19    1
    27    19    20    1
    28    20    21    1
    29    21    22    1
    30    23    24    1
    31    23    88    1
    32    23    89    1
    33    24    25    1
    34    24    26    1
    35    24    90    1
    36    25    91    1
    37    25    92    1
    38    25    93    1
    39    26    94    1
    40    26    95    1
    41    26    96    1
    42    27    28   ar
    43    28    29   ar
    44    29    30   ar
    45    29    31    1
    46    30    33    1
    47    31    32    1
    48    32    33    1
    49    32    35    1
    50    34    97    1
    51    34    98    1
    52    34    99    1
    53    35    61    1
    54    36    37    1
    55    36    60    1
    56    37    38    1
    57    38    39    1
    58    39    40    1
    59    40    41    1
    60    41    42    1
    61    45   100    1
    62    47   101    1
    63    47   102    1
    64    47   103    1
    65    48   104    1
    66    49   105    1
    67    49   106    1
    68    49   107    1
    69    50   108    1
    70    51    59    1
    71    52   109    1
    72    52   110    1
    73    52   111    1
    74    53    54    1
    75    54    55    2
    76    54    56    1
    77    56   112    1
    78    56   113    1
    79    56   114    1
    80    57   115    1
    81    57   116    1
    82    57   117    1
    83    58   118    1
    84    58   119    1
    85    58   120    1
    86    59   121    1
    87    59   122    1
    88    59   123    1
    89    60    61    2
    90     1    47    1
    91     1    62    1
    92     2    63    1
    93     3    64    1
    94     4    65    1
    95     5     6    1
    96     7     8    2
    97     9    78    1
    98    15    79    1
    99    18    80    1
   100    18    81    1
   101    19    82    1
   102    19    83    1
   103    20    23    1
   104    21    84    1
   105    21    85    1
   106    22    86    1
   107    22    87    1
   108    27    45    1
   109    28    34    1
   110    32    58    1
   111    33    46    2
   112    36    51    1
   113    36    66    1
   114    37    52    1
   115    37    67    1
   116    38    53    1
   117    38    68    1
   118    42    48    1
   119    42    72    1
   120    43    44    2
   121    60    73    1
   122    61    74    1
   123    39    69    1
   124    39    57    1
   125    40    70    1
   126    40    50    1
   127    41    71    1
   128    41    49    1
