@<TRIPOS>MOLECULE
*****
 123 128 0 0 0
SMALL
GASTEIGER

@<TRIPOS>ATOM
     1 C         -0.254416   -3.999259   -3.540611 C.3        1 UNL1     0.0009
     2 C         0.576071   -5.525876   -4.186187 C.2        1 UNL1     -0.0787
     3 C         1.503954   -6.160721   -5.098356 C.2        1 UNL1     -0.0649
     4 C         1.980349   -7.784934   -5.134929 C.2        1 UNL1     -0.0542
     5 C         2.969924   -8.694846   -5.582005 C.2        1 UNL1     0.0115
     6 C         4.222323   -8.843645   -6.489023 C.3        1 UNL1     -0.0348
     7 C         3.053124   -10.14731   -4.903465 C.2        1 UNL1     0.2441
     8 O         2.616792   -11.157462   -5.438004 O.2        1 UNL1     -0.2702
     9 N         3.890079   -10.223893   -3.776615 N.am        1 UNL1     -0.2772
     10 C         3.1885   -9.910505   -2.63517 C.2        1 UNL1     0.1049
     11 C         3.056224   -8.623884   -2.36809 C.2        1 UNL1     0.0801
     12 C         1.072085   -10.423049   -1.404145 C.ar        1 UNL1     0.0753
     13 C         0.868659   -9.008574   -1.323621 C.ar        1 UNL1     0.0305
     14 C         1.920738   -8.062277   -1.687908 C.2        1 UNL1     0.0924
     15 N         3.6717   -7.560716   -2.913426 N.pl3        1 UNL1     -0.3170
     16 C         3.300785   -6.398893   -2.149984 C.3        1 UNL1     0.1275
     17 N         1.943269   -6.73656   -1.583543 N.2        1 UNL1     -0.2557
     18 C         4.249361   -6.319563   -0.95767 C.3        1 UNL1     0.0016
     19 C         5.679221   -6.301168   -1.47415 C.3        1 UNL1     0.0026
     20 N         5.844506   -5.151373   -2.352604 N.3        1 UNL1     -0.3018
     21 C         4.932061   -5.107111   -3.497093 C.3        1 UNL1     0.0026
     22 C         3.50173   -5.121759   -2.955029 C.3        1 UNL1     0.0016
     23 C         7.233076   -4.870358   -2.658463 C.3        1 UNL1     0.0012
     24 C         7.450324   -3.359418   -2.836278 C.3        1 UNL1     -0.0339
     25 C         8.941917   -2.993387   -2.763964 C.3        1 UNL1     -0.0615
     26 C         6.822692   -2.8927   -4.138212 C.3        1 UNL1     -0.0615
     27 C         0.110067   -11.318045   -0.941952 C.ar        1 UNL1     0.1347
     28 C         -1.072706   -10.918663   -0.345637 C.ar        1 UNL1     0.0342
     29 C         -1.27303   -9.522076   -0.321561 C.ar        1 UNL1     0.1435
     30 C         -0.334268   -8.614417   -0.813599 C.ar        1 UNL1     0.0774
     31 O         -2.324504   -8.971963   0.324027 O.3        1 UNL1     -0.4436
     32 C         -1.944374   -7.604016   0.536382 C.3        1 UNL1     0.3143
     33 C         -0.900722   -7.313809   -0.523233 C.2        1 UNL1     0.2504
     34 C         -2.030694   -11.808801   0.395992 C.3        1 UNL1     -0.0327
     35 O         -3.085357   -6.792586   0.231435 O.2        1 UNL1     -0.4528
     36 C         -2.800038   -3.721969   2.444577 C.3        1 UNL1     0.0854
     37 C         -1.626029   -2.673843   2.547804 C.3        1 UNL1     0.0236
     38 C         -2.061857   -1.146715   2.324917 C.3        1 UNL1     0.1131
     39 C         -2.916198   -0.751601   1.053596 C.3        1 UNL1     0.0200
     40 C         -2.535921   -1.373881   -0.446602 C.3        1 UNL1     0.0661
     41 C         -0.995521   -1.383419   -1.157017 C.3        1 UNL1     0.0091
     42 C         -0.219518   -2.590649   -2.29974 C.3        1 UNL1     0.0661
     43 C         2.37976   -10.904765   -1.91424 C.2        1 UNL1     0.2131
     44 O         2.82818   -12.011801   -1.677325 O.2        1 UNL1     -0.2851
     45 O         0.366323   -12.67859   -1.099073 O.3        1 UNL1     -0.5056
     46 O         -0.616357   -6.251568   -1.029824 O.2        1 UNL1     -0.2836
     47 C         -1.341166   -3.514065   -4.537377 C.3        1 UNL1     -0.0566
     48 O         0.27507   -1.555627   -3.239542 O.3        1 UNL1     -0.3909
     49 C         0.032575   -1.055017   -0.097458 C.3        1 UNL1     -0.0577
     50 O         -3.167758   -2.622357   -0.646134 O.3        1 UNL1     -0.3910
     51 O         -4.039531   -3.217007   2.001743 O.3        1 UNL1     -0.3753
     52 C         -0.284142   -3.245934   1.984775 C.3        1 UNL1     -0.0564
     53 O         -1.025484   -0.155656   2.767701 O.3        1 UNL1     -0.4608
     54 C         -0.470274   0.819335   1.980895 C.2        1 UNL1     0.3042
     55 O         -1.037157   1.507946   1.13337 O.2        1 UNL1     -0.2512
     56 C         0.982837   1.069243   2.268517 C.3        1 UNL1     0.0332
     57 C         -4.455042   -0.745279   1.489593 C.3        1 UNL1     -0.0567
     58 C         -1.271681   -7.547899   1.927735 C.3        1 UNL1     0.0210
     59 C         -4.06623   -1.808678   1.774226 C.3        1 UNL1     0.0372
     60 C         -2.50247   -4.91959   1.61252 C.2        1 UNL1     -0.0208
     61 C         -3.240934   -5.535113   0.688103 C.2        1 UNL1     0.0882
     62 H         -0.767877   -4.617382   -2.794291 H        1 UNL1     0.0365
     63 H         0.069551   -6.296168   -3.600903 H        1 UNL1     0.0576
     64 H         2.130173   -5.576598   -5.776411 H        1 UNL1     0.0615
     65 H         1.249461   -8.28539   -4.493969 H        1 UNL1     0.0622
     66 H         -2.929934   -4.092907   3.471016 H        1 UNL1     0.0645
     67 H         -1.361411   -2.672382   3.619501 H        1 UNL1     0.0362
     68 H         -2.740294   -1.021986   3.182639 H        1 UNL1     0.0741
     69 H         -2.832431   0.315412   0.895881 H        1 UNL1     0.0359
     70 H         -3.098737   -0.672738   -1.092121 H        1 UNL1     0.0600
     71 H         -1.037126   -0.431299   -1.721547 H        1 UNL1     0.0348
     72 H         -1.303311   -2.765419   -2.364256 H        1 UNL1     0.0602
     73 H         -1.592057   -5.355832   1.94129 H        1 UNL1     0.0628
     74 H         -4.155055   -5.12617   0.256381 H        1 UNL1     0.1022
     75 H         4.547876   -9.910817   -6.535853 H        1 UNL1     0.0279
     76 H         4.093407   -8.591753   -7.539261 H        1 UNL1     0.0279
     77 H         5.115307   -8.363056   -6.063213 H        1 UNL1     0.0279
     78 H         4.646781   -9.549004   -3.866081 H        1 UNL1     0.1553
     79 H         4.52792   -7.618997   -3.433448 H        1 UNL1     0.1484
     80 H         4.021029   -5.416615   -0.378605 H        1 UNL1     0.0317
     81 H         4.102167   -7.169971   -0.283288 H        1 UNL1     0.0317
     82 H         5.936651   -7.236138   -1.993258 H        1 UNL1     0.0428
     83 H         6.338928   -6.246199   -0.607655 H        1 UNL1     0.0428
     84 H         5.022698   -4.195118   -4.09531 H        1 UNL1     0.0428
     85 H         5.133853   -5.916478   -4.212301 H        1 UNL1     0.0428
     86 H         2.86784   -4.954704   -3.806065 H        1 UNL1     0.0317
     87 H         3.328199   -4.236154   -2.33158 H        1 UNL1     0.0317
     88 H         7.845106   -5.214508   -1.8145 H        1 UNL1     0.0429
     89 H         7.56637   -5.425354   -3.544842 H        1 UNL1     0.0429
     90 H         6.920397   -2.824122   -2.039504 H        1 UNL1     0.0308
     91 H         9.568671   -3.888296   -2.705491 H        1 UNL1     0.0233
     92 H         9.237868   -2.404582   -3.63536 H        1 UNL1     0.0233
     93 H         9.179487   -2.380695   -1.885896 H        1 UNL1     0.0233
     94 H         6.868933   -1.80064   -4.209638 H        1 UNL1     0.0233
     95 H         7.370786   -3.30961   -4.987765 H        1 UNL1     0.0233
     96 H         5.775413   -3.199591   -4.208875 H        1 UNL1     0.0233
     97 H         -2.162691   -12.766679   -0.098251 H        1 UNL1     0.0280
     98 H         -1.680161   -12.039813   1.410397 H        1 UNL1     0.0280
     99 H         -3.014635   -11.316524   0.46395 H        1 UNL1     0.0280
     100 H         1.054131   -12.879557   -1.709118 H        1 UNL1     0.2922
     101 H         -2.265221   -3.302765   -3.999667 H        1 UNL1     0.0236
     102 H         -1.499128   -4.201762   -5.3675 H        1 UNL1     0.0236
     103 H         -1.069123   -2.557069   -5.013134 H        1 UNL1     0.0236
     104 H         0.845275   -2.001583   -3.896017 H        1 UNL1     0.2098
     105 H         -0.175189   -1.485897   0.878753 H        1 UNL1     0.0234
     106 H         1.064293   -1.254619   -0.386668 H        1 UNL1     0.0234
     107 H         0.0   0.0   0.0 H        1 UNL1     0.0234
     108 H         -4.039131   -2.445242   -1.05 H        1 UNL1     0.2098
     109 H         -0.011962   -4.203198   2.450903 H        1 UNL1     0.0234
     110 H         -0.287081   -3.356738   0.89507 H        1 UNL1     0.0234
     111 H         0.558314   -2.569476   2.181293 H        1 UNL1     0.0234
     112 H         1.40248   0.225742   2.825072 H        1 UNL1     0.0342
     113 H         1.552975   1.260748   1.360711 H        1 UNL1     0.0342
     114 H         1.05818   1.962643   2.903595 H        1 UNL1     0.0342
     115 H         -4.678473   0.073522   2.187326 H        1 UNL1     0.0234
     116 H         -5.152914   -0.664165   0.653863 H        1 UNL1     0.0234
     117 H         -4.745303   -1.623467   2.091652 H        1 UNL1     0.0234
     118 H         -0.171256   -7.495978   1.854422 H        1 UNL1     0.0309
     119 H         -1.629117   -6.71726   2.544568 H        1 UNL1     0.0309
     120 H         -1.443098   -8.456987   2.51449 H        1 UNL1     0.0309
     121 H         -4.889272   -1.600618   1.091094 H        1 UNL1     0.0524
     122 H         -4.251054   -1.238756   2.700004 H        1 UNL1     0.0524
     123 H         -3.126312   -1.480267   1.339721 H        1 UNL1     0.0524
@<TRIPOS>BOND
     1     1     2    1
     2     1    42    1
     3     2     3    2
     4     3     4    1
     5     4     5    2
     6     5     7    1
     7     6    75    1
     8     6    76    1
     9     6    77    1
    10     7     9   am
    11     9    10    1
    12    10    11    2
    13    10    43    1
    14    11    14    1
    15    11    15    1
    16    12    13   ar
    17    12    27   ar
    18    12    43    1
    19    13    14    1
    20    13    30   ar
    21    14    17    2
    22    15    16    1
    23    16    17    1
    24    16    18    1
    25    16    22    1
    26    18    19    1
    27    19    20    1
    28    20    21    1
    29    21    22    1
    30    23    24    1
    31    23    88    1
    32    23    89    1
    33    24    25    1
    34    24    26    1
    35    24    90    1
    36    25    91    1
    37    25    92    1
    38    25    93    1
    39    26    94    1
    40    26    95    1
    41    26    96    1
    42    27    28   ar
    43    28    29   ar
    44    29    30   ar
    45    29    31    1
    46    30    33    1
    47    31    32    1
    48    32    33    1
    49    32    35    1
    50    34    97    1
    51    34    98    1
    52    34    99    1
    53    35    61    1
    54    36    37    1
    55    36    60    1
    56    37    38    1
    57    38    39    1
    58    39    40    1
    59    40    41    1
    60    41    42    1
    61    45   100    1
    62    47   101    1
    63    47   102    1
    64    47   103    1
    65    48   104    1
    66    49   105    1
    67    49   106    1
    68    49   107    1
    69    50   108    1
    70    51    59    1
    71    52   109    1
    72    52   110    1
    73    52   111    1
    74    53    54    1
    75    54    55    2
    76    54    56    1
    77    56   112    1
    78    56   113    1
    79    56   114    1
    80    57   115    1
    81    57   116    1
    82    57   117    1
    83    58   118    1
    84    58   119    1
    85    58   120    1
    86    59   121    1
    87    59   122    1
    88    59   123    1
    89    60    61    2
    90     1    47    1
    91     1    62    1
    92     2    63    1
    93     3    64    1
    94     4    65    1
    95     5     6    1
    96     7     8    2
    97     9    78    1
    98    15    79    1
    99    18    80    1
   100    18    81    1
   101    19    82    1
   102    19    83    1
   103    20    23    1
   104    21    84    1
   105    21    85    1
   106    22    86    1
   107    22    87    1
   108    27    45    1
   109    28    34    1
   110    32    58    1
   111    33    46    2
   112    36    51    1
   113    36    66    1
   114    37    52    1
   115    37    67    1
   116    38    53    1
   117    38    68    1
   118    42    48    1
   119    42    72    1
   120    43    44    2
   121    60    73    1
   122    61    74    1
   123    39    69    1
   124    39    57    1
   125    40    70    1
   126    40    50    1
   127    41    71    1
   128    41    49    1
