@<TRIPOS>MOLECULE
*****
 123 128 0 0 0
SMALL
GASTEIGER

@<TRIPOS>ATOM
     1 C         -1.597319   3.717991   -0.889088 C.3        1 UNL1     0.0009
     2 C         -3.377871   4.226828   -0.801019 C.2        1 UNL1     -0.0787
     3 C         -4.645456   4.480435   -1.452907 C.2        1 UNL1     -0.0649
     4 C         -6.128533   4.862795   -0.731354 C.2        1 UNL1     -0.0542
     5 C         -7.53382   4.888357   -0.909097 C.2        1 UNL1     0.0115
     6 C         -8.671146   4.73094   -1.955536 C.3        1 UNL1     -0.0348
     7 C         -8.478769   4.990428   0.384596 C.2        1 UNL1     0.2441
     8 O         -9.020705   6.030559   0.732385 O.2        1 UNL1     -0.2702
     9 N         -8.852006   3.754307   0.940341 N.am        1 UNL1     -0.2772
     10 C         -7.915648   3.338415   1.858813 C.2        1 UNL1     0.1049
     11 C         -6.853804   2.723819   1.369956 C.2        1 UNL1     0.0801
     12 C         -6.602305   4.112528   3.842046 C.ar        1 UNL1     0.0753
     13 C         -5.441721   3.612069   3.170337 C.ar        1 UNL1     0.0305
     14 C         -5.549165   2.783834   1.971365 C.2        1 UNL1     0.0924
     15 N         -6.624791   2.245658   0.134868 N.pl3        1 UNL1     -0.3170
     16 C         -5.386128   1.514378   0.169479 C.3        1 UNL1     0.1275
     17 N         -4.597781   2.158989   1.283351 N.2        1 UNL1     -0.2557
     18 C         -5.708966   0.100276   0.642545 C.3        1 UNL1     0.0016
     19 C         -6.762379   -0.492463   -0.279719 C.3        1 UNL1     0.0026
     20 N         -6.241877   -0.501012   -1.639878 N.3        1 UNL1     -0.3018
     21 C         -5.844953   0.8083   -2.161915 C.3        1 UNL1     0.0026
     22 C         -4.783086   1.38325   -1.222891 C.3        1 UNL1     0.0016
     23 C         -7.035617   -1.311039   -2.542361 C.3        1 UNL1     0.0012
     24 C         -6.869579   -2.803168   -2.214127 C.3        1 UNL1     -0.0339
     25 C         -6.93398   -3.668716   -3.483274 C.3        1 UNL1     -0.0615
     26 C         -5.576561   -3.027468   -1.449552 C.3        1 UNL1     -0.0615
     27 C         -6.497611   4.79848   5.049782 C.ar        1 UNL1     0.1347
     28 C         -5.294816   5.009604   5.699983 C.ar        1 UNL1     0.0342
     29 C         -4.161115   4.551008   4.996011 C.ar        1 UNL1     0.1435
     30 C         -4.247622   3.89414   3.767898 C.ar        1 UNL1     0.0774
     31 O         -2.928233   4.584096   5.547293 O.3        1 UNL1     -0.4436
     32 C         -2.162795   3.642118   4.780707 C.3        1 UNL1     0.3143
     33 C         -2.880522   3.537942   3.450208 C.2        1 UNL1     0.2504
     34 C         -5.129611   5.510131   7.107918 C.3        1 UNL1     -0.0327
     35 O         -0.887199   4.240937   4.520855 O.2        1 UNL1     -0.4528
     36 C         1.582022   1.367896   4.282797 C.3        1 UNL1     0.0854
     37 C         1.56553   0.116994   3.322331 C.3        1 UNL1     0.0236
     38 C         2.896864   -0.083783   2.451136 C.3        1 UNL1     0.1131
     39 C         3.477684   1.126593   1.61453 C.3        1 UNL1     0.0200
     40 C         2.459477   2.107751   0.729647 C.3        1 UNL1     0.0661
     41 C         1.270792   1.58088   -0.359869 C.3        1 UNL1     0.0091
     42 C         -0.352169   2.315725   -0.797364 C.3        1 UNL1     0.0661
     43 C         -7.928816   3.798997   3.255253 C.2        1 UNL1     0.2131
     44 O         -8.966395   3.810591   3.892461 O.2        1 UNL1     -0.2851
     45 O         -7.671491   5.292457   5.614965 O.3        1 UNL1     -0.5056
     46 O         -2.422486   3.248005   2.367622 O.2        1 UNL1     -0.2836
     47 C         -0.738242   4.863246   -1.489387 C.3        1 UNL1     -0.0566
     48 O         -0.146711   2.182116   -2.259914 O.3        1 UNL1     -0.3909
     49 C         1.043778   0.099577   -0.155664 C.3        1 UNL1     -0.0577
     50 O         1.950169   3.154373   1.531466 O.3        1 UNL1     -0.3910
     51 O         2.675749   2.244782   4.133585 O.3        1 UNL1     -0.3753
     52 C         0.140462   -0.147275   2.735566 C.3        1 UNL1     -0.0564
     53 O         3.004365   -1.442568   1.823065 O.3        1 UNL1     -0.4608
     54 C         3.514264   -1.705151   0.578484 C.2        1 UNL1     0.3042
     55 O         4.643499   -1.446305   0.164159 O.2        1 UNL1     -0.2512
     56 C         2.560989   -2.441944   -0.318799 C.3        1 UNL1     0.0332
     57 C         4.604364   1.831381   2.504498 C.3        1 UNL1     -0.0567
     58 C         -2.275137   2.28611   5.515658 C.3        1 UNL1     0.0210
     59 C         3.629795   2.198816   5.193561 C.3        1 UNL1     0.0372
     60 C         0.352237   2.205404   4.245775 C.2        1 UNL1     -0.0208
     61 C         0.210004   3.530561   4.196048 C.2        1 UNL1     0.0882
     62 H         -1.534625   3.818254   0.2012 H        1 UNL1     0.0365
     63 H         -3.462619   4.489154   0.255614 H        1 UNL1     0.0576
     64 H         -4.793164   4.277405   -2.515954 H        1 UNL1     0.0615
     65 H         -5.859184   5.122882   0.295919 H        1 UNL1     0.0622
     66 H         1.624175   0.939012   5.293899 H        1 UNL1     0.0645
     67 H         1.618777   -0.747349   4.006901 H        1 UNL1     0.0362
     68 H         3.622727   -0.253691   3.260937 H        1 UNL1     0.0741
     69 H         4.147845   0.73791   0.859402 H        1 UNL1     0.0359
     70 H         3.197117   2.600354   0.067612 H        1 UNL1     0.0600
     71 H         1.855976   1.583142   -1.300354 H        1 UNL1     0.0348
     72 H         0.234254   3.125966   -0.340272 H        1 UNL1     0.0602
     73 H         -0.496896   1.585812   4.3952 H        1 UNL1     0.0628
     74 H         1.020164   4.230343   3.988241 H        1 UNL1     0.1022
     75 H         -8.44311   5.323119   -2.874426 H        1 UNL1     0.0279
     76 H         -8.828651   3.731266   -2.354173 H        1 UNL1     0.0279
     77 H         -9.615454   5.191228   -1.629779 H        1 UNL1     0.0279
     78 H         -8.896472   3.049282   0.207512 H        1 UNL1     0.1553
     79 H         -7.350001   2.055482   -0.532093 H        1 UNL1     0.1484
     80 H         -4.789427   -0.497369   0.636627 H        1 UNL1     0.0317
     81 H         -6.071986   0.10668   1.675902 H        1 UNL1     0.0317
     82 H         -7.711361   0.060779   -0.22253 H        1 UNL1     0.0428
     83 H         -6.979079   -1.499972   0.076676 H        1 UNL1     0.0428
     84 H         -5.383973   0.763757   -3.153542 H        1 UNL1     0.0428
     85 H         -6.70921   1.472805   -2.29907 H        1 UNL1     0.0428
     86 H         -4.422226   2.273245   -1.704218 H        1 UNL1     0.0317
     87 H         -3.903051   0.728743   -1.206903 H        1 UNL1     0.0317
     88 H         -8.09058   -1.038782   -2.407369 H        1 UNL1     0.0429
     89 H         -6.781981   -1.105503   -3.590311 H        1 UNL1     0.0429
     90 H         -7.675005   -3.114045   -1.538214 H        1 UNL1     0.0308
     91 H         -6.316997   -3.248354   -4.283106 H        1 UNL1     0.0233
     92 H         -6.602478   -4.68823   -3.272782 H        1 UNL1     0.0233
     93 H         -7.953176   -3.754178   -3.879218 H        1 UNL1     0.0233
     94 H         -5.771608   -3.035341   -0.371716 H        1 UNL1     0.0233
     95 H         -5.144926   -3.994892   -1.721107 H        1 UNL1     0.0233
     96 H         -4.845604   -2.242468   -1.662732 H        1 UNL1     0.0233
     97 H         -4.582449   4.80699   7.728754 H        1 UNL1     0.0280
     98 H         -4.56451   6.450457   7.1492 H        1 UNL1     0.0280
     99 H         -6.121467   5.671895   7.560851 H        1 UNL1     0.0280
     100 H         -8.217361   5.778176   5.021901 H        1 UNL1     0.2922
     101 H         -0.174583   5.354418   -0.696485 H        1 UNL1     0.0236
     102 H         -1.319926   5.572441   -2.077324 H        1 UNL1     0.0236
     103 H         0.029177   4.484395   -2.184896 H        1 UNL1     0.0236
     104 H         0.576496   1.539713   -2.398698 H        1 UNL1     0.2098
     105 H         1.313336   -0.517895   -1.008822 H        1 UNL1     0.0234
     106 H         1.479588   -0.306317   0.75716 H        1 UNL1     0.0234
     107 H         0.0   0.0   0.0 H        1 UNL1     0.0234
     108 H         1.201081   3.552382   1.047499 H        1 UNL1     0.2098
     109 H         -0.600708   -0.353947   3.52021 H        1 UNL1     0.0234
     110 H         -0.219551   0.666262   2.096589 H        1 UNL1     0.0234
     111 H         0.130234   -1.026708   2.077965 H        1 UNL1     0.0234
     112 H         2.61706   -2.037127   -1.333848 H        1 UNL1     0.0342
     113 H         2.742644   -3.515646   -0.315787 H        1 UNL1     0.0342
     114 H         1.540935   -2.275878   0.054131 H        1 UNL1     0.0342
     115 H         5.424437   2.225198   1.8884 H        1 UNL1     0.0234
     116 H         4.233685   2.652361   3.121456 H        1 UNL1     0.0234
     117 H         5.148523   1.130798   3.161017 H        1 UNL1     0.0234
     118 H         -1.319468   1.985683   5.979821 H        1 UNL1     0.0309
     119 H         -3.062255   2.273587   6.276243 H        1 UNL1     0.0309
     120 H         -2.497397   1.456534   4.835578 H        1 UNL1     0.0309
     121 H         4.117333   1.225022   5.156316 H        1 UNL1     0.0524
     122 H         4.413561   2.966848   5.084593 H        1 UNL1     0.0524
     123 H         3.134639   2.333723   6.151014 H        1 UNL1     0.0524
@<TRIPOS>BOND
     1     1     2    1
     2     1    42    1
     3     2     3    2
     4     3     4    1
     5     4     5    2
     6     5     7    1
     7     6    75    1
     8     6    76    1
     9     6    77    1
    10     7     9   am
    11     9    10    1
    12    10    11    2
    13    10    43    1
    14    11    14    1
    15    11    15    1
    16    12    13   ar
    17    12    27   ar
    18    12    43    1
    19    13    14    1
    20    13    30   ar
    21    14    17    2
    22    15    16    1
    23    16    17    1
    24    16    18    1
    25    16    22    1
    26    18    19    1
    27    19    20    1
    28    20    21    1
    29    21    22    1
    30    23    24    1
    31    23    88    1
    32    23    89    1
    33    24    25    1
    34    24    26    1
    35    24    90    1
    36    25    91    1
    37    25    92    1
    38    25    93    1
    39    26    94    1
    40    26    95    1
    41    26    96    1
    42    27    28   ar
    43    28    29   ar
    44    29    30   ar
    45    29    31    1
    46    30    33    1
    47    31    32    1
    48    32    33    1
    49    32    35    1
    50    34    97    1
    51    34    98    1
    52    34    99    1
    53    35    61    1
    54    36    37    1
    55    36    60    1
    56    37    38    1
    57    38    39    1
    58    39    40    1
    59    40    41    1
    60    41    42    1
    61    45   100    1
    62    47   101    1
    63    47   102    1
    64    47   103    1
    65    48   104    1
    66    49   105    1
    67    49   106    1
    68    49   107    1
    69    50   108    1
    70    51    59    1
    71    52   109    1
    72    52   110    1
    73    52   111    1
    74    53    54    1
    75    54    55    2
    76    54    56    1
    77    56   112    1
    78    56   113    1
    79    56   114    1
    80    57   115    1
    81    57   116    1
    82    57   117    1
    83    58   118    1
    84    58   119    1
    85    58   120    1
    86    59   121    1
    87    59   122    1
    88    59   123    1
    89    60    61    2
    90     1    47    1
    91     1    62    1
    92     2    63    1
    93     3    64    1
    94     4    65    1
    95     5     6    1
    96     7     8    2
    97     9    78    1
    98    15    79    1
    99    18    80    1
   100    18    81    1
   101    19    82    1
   102    19    83    1
   103    20    23    1
   104    21    84    1
   105    21    85    1
   106    22    86    1
   107    22    87    1
   108    27    45    1
   109    28    34    1
   110    32    58    1
   111    33    46    2
   112    36    51    1
   113    36    66    1
   114    37    52    1
   115    37    67    1
   116    38    53    1
   117    38    68    1
   118    42    48    1
   119    42    72    1
   120    43    44    2
   121    60    73    1
   122    61    74    1
   123    39    69    1
   124    39    57    1
   125    40    70    1
   126    40    50    1
   127    41    71    1
   128    41    49    1
