@<TRIPOS>MOLECULE
*****
 123 128 0 0 0
SMALL
GASTEIGER

@<TRIPOS>ATOM
     1 C         5.167036   1.749463   0.490258 C.3        1 UNL1     0.0009
     2 C         6.603381   2.555951   -0.360345 C.2        1 UNL1     -0.0787
     3 C         7.885088   2.458083   -1.026449 C.2        1 UNL1     -0.0649
     4 C         8.762162   3.693491   -1.782004 C.2        1 UNL1     -0.0542
     5 C         9.78189   3.98648   -2.720829 C.2        1 UNL1     0.0115
     6 C         10.909932   3.361378   -3.586907 C.3        1 UNL1     -0.0348
     7 C         9.876863   5.469883   -3.327033 C.2        1 UNL1     0.2441
     8 O         10.700741   6.291557   -2.949406 O.2        1 UNL1     -0.2702
     9 N         9.12629   5.677009   -4.497456 N.am        1 UNL1     -0.2772
     10 C         7.84361   6.06345   -4.183261 C.2        1 UNL1     0.1049
     11 C         6.998035   5.09186   -3.891308 C.2        1 UNL1     0.0801
     12 C         6.545395   7.669617   -2.771809 C.ar        1 UNL1     0.0753
     13 C         5.786611   6.541502   -2.324358 C.ar        1 UNL1     0.0305
     14 C         5.903537   5.235959   -2.970065 C.2        1 UNL1     0.0924
     15 N         7.120788   3.762933   -4.050724 N.pl3        1 UNL1     -0.3170
     16 C         5.851095   3.163525   -3.736329 C.3        1 UNL1     0.1275
     17 N         5.214839   4.118459   -2.75602 N.2        1 UNL1     -0.2557
     18 C         4.997889   3.22276   -4.99975 C.3        1 UNL1     0.0016
     19 C         5.752548   2.539018   -6.12872 C.3        1 UNL1     0.0026
     20 N         6.02298   1.160867   -5.74324 N.3        1 UNL1     -0.3018
     21 C         6.786702   1.000301   -4.504161 C.3        1 UNL1     0.0026
     22 C         6.008175   1.690471   -3.382797 C.3        1 UNL1     0.0016
     23 C         6.467289   0.341633   -6.853235 C.3        1 UNL1     0.0012
     24 C         5.311605   0.092219   -7.835041 C.3        1 UNL1     -0.0339
     25 C         5.346855   1.08463   -9.008896 C.3        1 UNL1     -0.0615
     26 C         5.340763   -1.347168   -8.318873 C.3        1 UNL1     -0.0615
     27 C         6.340716   8.937165   -2.231858 C.ar        1 UNL1     0.1347
     28 C         5.381888   9.206375   -1.271532 C.ar        1 UNL1     0.0342
     29 C         4.680605   8.071731   -0.811153 C.ar        1 UNL1     0.1435
     30 C         4.900078   6.789844   -1.316936 C.ar        1 UNL1     0.0774
     31 O         3.639837   8.184973   0.042652 O.3        1 UNL1     -0.4436
     32 C         2.918283   6.952088   -0.099574 C.3        1 UNL1     0.3143
     33 C         3.931563   5.959233   -0.632223 C.2        1 UNL1     0.2504
     34 C         4.934991   10.572324   -0.830435 C.3        1 UNL1     -0.0327
     35 O         2.558075   6.515056   1.216672 O.2        1 UNL1     -0.4528
     36 C         -0.684827   4.582525   0.820438 C.3        1 UNL1     0.0854
     37 C         -0.990219   3.322092   -0.077097 C.3        1 UNL1     0.0236
     38 C         -1.590384   2.0608   0.710741 C.3        1 UNL1     0.1131
     39 C         -0.864186   1.529685   2.011826 C.3        1 UNL1     0.0200
     40 C         0.797037   1.384351   2.052491 C.3        1 UNL1     0.0661
     41 C         1.756176   0.615896   0.883243 C.3        1 UNL1     0.0091
     42 C         3.463554   0.978799   0.318829 C.3        1 UNL1     0.0661
     43 C         7.495145   7.462278   -3.893078 C.2        1 UNL1     0.2131
     44 O         7.894704   8.36056   -4.611534 O.2        1 UNL1     -0.2851
     45 O         7.152715   9.972476   -2.690362 O.3        1 UNL1     -0.5056
     46 O         3.947748   4.755673   -0.501703 O.2        1 UNL1     -0.2836
     47 C         5.563866   1.319737   1.928258 C.3        1 UNL1     -0.0566
     48 O         3.912327   -0.432264   0.400192 O.3        1 UNL1     -0.3909
     49 C         0.921663   0.383455   -0.356537 C.3        1 UNL1     -0.0577
     50 O         1.397188   2.602211   2.445377 O.3        1 UNL1     -0.3910
     51 O         -0.80849   4.392545   2.211857 O.3        1 UNL1     -0.3753
     52 C         0.053926   3.161997   -1.229954 C.3        1 UNL1     -0.0564
     53 O         -2.193109   1.021923   -0.189138 O.3        1 UNL1     -0.4608
     54 C         -2.42725   -0.284929   0.150338 C.2        1 UNL1     0.3042
     55 O         -1.858148   -1.283895   -0.287872 O.2        1 UNL1     -0.2512
     56 C         -3.466938   -0.45093   1.221882 C.3        1 UNL1     0.0332
     57 C         -1.584938   2.198325   3.273418 C.3        1 UNL1     -0.0567
     58 C         1.842743   7.197261   -1.183379 C.3        1 UNL1     0.0210
     59 C         -1.121628   5.571358   2.95227 C.3        1 UNL1     0.0372
     60 C         0.64402   5.211829   0.589566 C.2        1 UNL1     -0.0208
     61 C         1.557151   5.647003   1.458796 C.2        1 UNL1     0.0882
     62 H         4.691013   2.733556   0.577864 H        1 UNL1     0.0365
     63 H         6.337027   3.609695   -0.254749 H        1 UNL1     0.0576
     64 H         8.342803   1.491337   -1.247825 H        1 UNL1     0.0615
     65 H         8.275062   4.608754   -1.434859 H        1 UNL1     0.0622
     66 H         -1.429664   5.329019   0.510583 H        1 UNL1     0.0645
     67 H         -1.855986   3.631469   -0.688075 H        1 UNL1     0.0362
     68 H         -2.537408   2.497483   1.062843 H        1 UNL1     0.0741
     69 H         -1.195521   0.518505   2.207122 H        1 UNL1     0.0359
     70 H         0.909156   0.723858   2.933535 H        1 UNL1     0.0600
     71 H         1.800015   -0.405349   1.309967 H        1 UNL1     0.0348
     72 H         3.357897   1.466795   1.298631 H        1 UNL1     0.0602
     73 H         0.761586   5.4093   -0.446982 H        1 UNL1     0.0628
     74 H         1.539947   5.436124   2.528595 H        1 UNL1     0.1022
     75 H         10.935982   2.252685   -3.455926 H        1 UNL1     0.0279
     76 H         10.809407   3.467635   -4.664717 H        1 UNL1     0.0279
     77 H         11.915863   3.643952   -3.243462 H        1 UNL1     0.0279
     78 H         9.064246   4.807157   -5.022418 H        1 UNL1     0.1553
     79 H         7.785931   3.33515   -4.668396 H        1 UNL1     0.1484
     80 H         4.036728   2.731665   -4.805428 H        1 UNL1     0.0317
     81 H         4.771068   4.259538   -5.270481 H        1 UNL1     0.0317
     82 H         6.68307   3.070488   -6.376876 H        1 UNL1     0.0428
     83 H         5.127126   2.594256   -7.020261 H        1 UNL1     0.0428
     84 H         6.907247   -0.042696   -4.195232 H        1 UNL1     0.0428
     85 H         7.816717   1.368486   -4.608211 H        1 UNL1     0.0428
     86 H         6.524899   1.439995   -2.474916 H        1 UNL1     0.0317
     87 H         5.028829   1.212684   -3.257511 H        1 UNL1     0.0317
     88 H         7.263127   0.883635   -7.380653 H        1 UNL1     0.0429
     89 H         6.900109   -0.604153   -6.502621 H        1 UNL1     0.0429
     90 H         4.358713   0.211069   -7.30581 H        1 UNL1     0.0308
     91 H         6.299873   1.03408   -9.543969 H        1 UNL1     0.0233
     92 H         4.531783   0.884688   -9.708388 H        1 UNL1     0.0233
     93 H         5.220689   2.12366   -8.681275 H        1 UNL1     0.0233
     94 H         4.646044   -1.478561   -9.155496 H        1 UNL1     0.0233
     95 H         6.344199   -1.602872   -8.670577 H        1 UNL1     0.0233
     96 H         5.058157   -2.041581   -7.522699 H        1 UNL1     0.0233
     97 H         4.135583   10.522434   -0.097163 H        1 UNL1     0.0280
     98 H         5.745389   11.138896   -0.353457 H        1 UNL1     0.0280
     99 H         4.569791   11.140357   -1.701677 H        1 UNL1     0.0280
     100 H         6.685504   10.723613   -3.011503 H        1 UNL1     0.2922
     101 H         4.701259   0.885889   2.433571 H        1 UNL1     0.0236
     102 H         6.014714   2.12503   2.507243 H        1 UNL1     0.0236
     103 H         6.32022   0.517166   1.92678 H        1 UNL1     0.0236
     104 H         4.331821   -0.558458   1.273731 H        1 UNL1     0.2098
     105 H         0.70865   1.282381   -0.929571 H        1 UNL1     0.0234
     106 H         1.291012   -0.40433   -1.01297 H        1 UNL1     0.0234
     107 H         0.0   -0.0   0.0 H        1 UNL1     0.0234
     108 H         1.213369   3.255908   1.743481 H        1 UNL1     0.2098
     109 H         1.080336   3.060975   -0.850496 H        1 UNL1     0.0234
     110 H         -0.171943   2.327383   -1.902372 H        1 UNL1     0.0234
     111 H         0.066018   4.039709   -1.889819 H        1 UNL1     0.0234
     112 H         -3.590122   -1.51187   1.459744 H        1 UNL1     0.0342
     113 H         -3.229836   0.124806   2.115277 H        1 UNL1     0.0342
     114 H         -4.424519   -0.079986   0.831235 H        1 UNL1     0.0342
     115 H         -2.654517   1.949901   3.311794 H        1 UNL1     0.0234
     116 H         -1.148157   1.918441   4.234113 H        1 UNL1     0.0234
     117 H         -1.623696   3.300185   3.225009 H        1 UNL1     0.0234
     118 H         0.941105   7.682561   -0.770415 H        1 UNL1     0.0309
     119 H         2.211355   7.786751   -2.028855 H        1 UNL1     0.0309
     120 H         1.455274   6.265367   -1.609464 H        1 UNL1     0.0309
     121 H         -0.300712   6.274658   2.815071 H        1 UNL1     0.0524
     122 H         -2.041596   6.060347   2.590904 H        1 UNL1     0.0524
     123 H         -1.239253   5.333404   4.005662 H        1 UNL1     0.0524
@<TRIPOS>BOND
     1     1     2    1
     2     1    42    1
     3     2     3    2
     4     3     4    1
     5     4     5    2
     6     5     7    1
     7     6    75    1
     8     6    76    1
     9     6    77    1
    10     7     9   am
    11     9    10    1
    12    10    11    2
    13    10    43    1
    14    11    14    1
    15    11    15    1
    16    12    13   ar
    17    12    27   ar
    18    12    43    1
    19    13    14    1
    20    13    30   ar
    21    14    17    2
    22    15    16    1
    23    16    17    1
    24    16    18    1
    25    16    22    1
    26    18    19    1
    27    19    20    1
    28    20    21    1
    29    21    22    1
    30    23    24    1
    31    23    88    1
    32    23    89    1
    33    24    25    1
    34    24    26    1
    35    24    90    1
    36    25    91    1
    37    25    92    1
    38    25    93    1
    39    26    94    1
    40    26    95    1
    41    26    96    1
    42    27    28   ar
    43    28    29   ar
    44    29    30   ar
    45    29    31    1
    46    30    33    1
    47    31    32    1
    48    32    33    1
    49    32    35    1
    50    34    97    1
    51    34    98    1
    52    34    99    1
    53    35    61    1
    54    36    37    1
    55    36    60    1
    56    37    38    1
    57    38    39    1
    58    39    40    1
    59    40    41    1
    60    41    42    1
    61    45   100    1
    62    47   101    1
    63    47   102    1
    64    47   103    1
    65    48   104    1
    66    49   105    1
    67    49   106    1
    68    49   107    1
    69    50   108    1
    70    51    59    1
    71    52   109    1
    72    52   110    1
    73    52   111    1
    74    53    54    1
    75    54    55    2
    76    54    56    1
    77    56   112    1
    78    56   113    1
    79    56   114    1
    80    57   115    1
    81    57   116    1
    82    57   117    1
    83    58   118    1
    84    58   119    1
    85    58   120    1
    86    59   121    1
    87    59   122    1
    88    59   123    1
    89    60    61    2
    90     1    47    1
    91     1    62    1
    92     2    63    1
    93     3    64    1
    94     4    65    1
    95     5     6    1
    96     7     8    2
    97     9    78    1
    98    15    79    1
    99    18    80    1
   100    18    81    1
   101    19    82    1
   102    19    83    1
   103    20    23    1
   104    21    84    1
   105    21    85    1
   106    22    86    1
   107    22    87    1
   108    27    45    1
   109    28    34    1
   110    32    58    1
   111    33    46    2
   112    36    51    1
   113    36    66    1
   114    37    52    1
   115    37    67    1
   116    38    53    1
   117    38    68    1
   118    42    48    1
   119    42    72    1
   120    43    44    2
   121    60    73    1
   122    61    74    1
   123    39    69    1
   124    39    57    1
   125    40    70    1
   126    40    50    1
   127    41    71    1
   128    41    49    1
