@<TRIPOS>MOLECULE
*****
 123 128 0 0 0
SMALL
GASTEIGER

@<TRIPOS>ATOM
     1 C         1.31108   -2.761913   -2.92673 C.3        1 UNL1     0.0009
     2 C         0.830138   -2.826154   -4.716033 C.2        1 UNL1     -0.0787
     3 C         0.08165   -3.436946   -5.794339 C.2        1 UNL1     -0.0649
     4 C         -0.053351   -2.908468   -7.3971 C.2        1 UNL1     -0.0542
     5 C         -0.821904   -2.986865   -8.584643 C.2        1 UNL1     0.0115
     6 C         -1.98687   -3.743759   -9.279832 C.3        1 UNL1     -0.0348
     7 C         -0.630969   -1.857639   -9.709535 C.2        1 UNL1     0.2441
     8 O         0.019127   -2.038137   -10.729987 O.2        1 UNL1     -0.2702
     9 N         -1.472166   -0.739922   -9.570802 N.am        1 UNL1     -0.2772
     10 C         -0.887503   0.203032   -8.756966 C.2        1 UNL1     0.1049
     11 C         -1.028384   0.017702   -7.456955 C.2        1 UNL1     0.0801
     12 C         1.246471   1.454474   -8.386316 C.ar        1 UNL1     0.0753
     13 C         1.155488   1.047974   -7.016978 C.ar        1 UNL1     0.0305
     14 C         -0.054094   0.426934   -6.481935 C.2        1 UNL1     0.0924
     15 N         -1.828399   -0.829329   -6.786848 N.pl3        1 UNL1     -0.3170
     16 C         -1.727021   -0.51451   -5.386539 C.3        1 UNL1     0.1275
     17 N         -0.34896   0.081124   -5.231976 N.2        1 UNL1     -0.2557
     18 C         -2.711312   0.616686   -5.104992 C.3        1 UNL1     0.0016
     19 C         -4.09698   0.177931   -5.551096 C.3        1 UNL1     0.0026
     20 N         -4.462894   -1.028588   -4.82209 N.3        1 UNL1     -0.3018
     21 C         -3.540669   -2.154889   -4.981197 C.3        1 UNL1     0.0026
     22 C         -2.156158   -1.693328   -4.522955 C.3        1 UNL1     0.0016
     23 C         -5.86856   -1.35877   -4.947495 C.3        1 UNL1     0.0012
     24 C         -6.120174   -2.16401   -6.232032 C.3        1 UNL1     -0.0339
     25 C         -4.988466   -3.170986   -6.495267 C.3        1 UNL1     -0.0615
     26 C         -7.473298   -2.850044   -6.15998 C.3        1 UNL1     -0.0615
     27 C         2.354222   2.153829   -8.859507 C.ar        1 UNL1     0.1347
     28 C         3.410551   2.536787   -8.052313 C.ar        1 UNL1     0.0342
     29 C         3.322057   2.083274   -6.719025 C.ar        1 UNL1     0.1435
     30 C         2.23549   1.350706   -6.239506 C.ar        1 UNL1     0.0774
     31 O         4.217629   2.466947   -5.783209 O.3        1 UNL1     -0.4436
     32 C         3.560632   2.222009   -4.530519 C.3        1 UNL1     0.3143
     33 C         2.515864   1.166337   -4.830902 C.2        1 UNL1     0.2504
     34 C         4.504014   3.497686   -8.427961 C.3        1 UNL1     -0.0327
     35 O         4.522535   1.61993   -3.655593 O.2        1 UNL1     -0.4528
     36 C         3.545422   2.683325   -0.145247 C.3        1 UNL1     0.0854
     37 C         2.180181   2.472735   0.615864 C.3        1 UNL1     0.0236
     38 C         2.303895   1.734135   2.033929 C.3        1 UNL1     0.1131
     39 C         3.102231   0.372887   2.143173 C.3        1 UNL1     0.0200
     40 C         2.906751   -0.816126   0.989711 C.3        1 UNL1     0.0661
     41 C         1.425081   -1.423911   0.430372 C.3        1 UNL1     0.0091
     42 C         0.949218   -2.065322   -1.221157 C.3        1 UNL1     0.0661
     43 C         0.081755   1.18498   -9.265561 C.2        1 UNL1     0.2131
     44 O         -0.140093   1.79628   -10.295043 O.2        1 UNL1     -0.2851
     45 O         2.385116   2.472111   -10.21567 O.3        1 UNL1     -0.5056
     46 O         2.038757   0.343683   -4.081593 O.2        1 UNL1     -0.2836
     47 C         2.309353   -3.903667   -2.595323 C.3        1 UNL1     -0.0566
     48 O         0.286428   -3.278734   -0.685007 O.3        1 UNL1     -0.3909
     49 C         0.316819   -0.498279   0.88032 C.3        1 UNL1     -0.0577
     50 O         3.785363   -0.60864   -0.097815 O.3        1 UNL1     -0.3910
     51 O         4.670602   2.050613   0.42139 O.3        1 UNL1     -0.3753
     52 C         1.002118   2.185026   -0.371224 C.3        1 UNL1     -0.0564
     53 O         1.073564   1.857152   2.884505 O.3        1 UNL1     -0.4608
     54 C         1.059157   1.971903   4.249992 C.2        1 UNL1     0.3042
     55 O         0.797099   1.093395   5.070595 O.2        1 UNL1     -0.2512
     56 C         1.471281   3.329481   4.743802 C.3        1 UNL1     0.0332
     57 C         4.592222   0.723509   2.607034 C.3        1 UNL1     -0.0567
     58 C         2.844364   3.53801   -4.147592 C.3        1 UNL1     0.0210
     59 C         5.600347   2.931588   1.050137 C.3        1 UNL1     0.0372
     60 C         3.525389   2.313187   -1.586689 C.2        1 UNL1     -0.0208
     61 C         4.404029   1.621961   -2.313975 C.2        1 UNL1     0.0882
     62 H         1.914123   -1.871231   -3.140588 H        1 UNL1     0.0365
     63 H         1.462695   -2.035724   -5.125375 H        1 UNL1     0.0576
     64 H         -0.627114   -4.247739   -5.611648 H        1 UNL1     0.0615
     65 H         0.742084   -2.164589   -7.494103 H        1 UNL1     0.0622
     66 H         3.713523   3.769092   -0.115267 H        1 UNL1     0.0645
     67 H         1.885051   3.490909   0.923728 H        1 UNL1     0.0362
     68 H         2.913737   2.474208   2.574213 H        1 UNL1     0.0741
     69 H         2.808774   -0.130499   3.054706 H        1 UNL1     0.0359
     70 H         3.336685   -1.680106   1.531703 H        1 UNL1     0.0600
     71 H         1.291271   -2.276358   1.124913 H        1 UNL1     0.0348
     72 H         2.047456   -2.107998   -1.184175 H        1 UNL1     0.0602
     73 H         2.712098   2.803147   -2.061815 H        1 UNL1     0.0628
     74 H         5.229943   1.044119   -1.8978 H        1 UNL1     0.1022
     75 H         -1.621852   -4.269873   -10.194709 H        1 UNL1     0.0279
     76 H         -2.447508   -4.550325   -8.713851 H        1 UNL1     0.0279
     77 H         -2.740427   -3.065349   -9.705992 H        1 UNL1     0.0279
     78 H         -2.346765   -1.022268   -9.13327 H        1 UNL1     0.1553
     79 H         -2.637022   -1.267176   -7.188535 H        1 UNL1     0.1484
     80 H         -2.690697   0.850173   -4.033626 H        1 UNL1     0.0317
     81 H         -2.417091   1.531327   -5.630841 H        1 UNL1     0.0317
     82 H         -4.141571   0.012716   -6.637663 H        1 UNL1     0.0428
     83 H         -4.782734   0.999799   -5.34295 H        1 UNL1     0.0428
     84 H         -3.794607   -3.020625   -4.361658 H        1 UNL1     0.0428
     85 H         -3.549764   -2.548921   -6.006855 H        1 UNL1     0.0428
     86 H         -1.54129   -2.574185   -4.526906 H        1 UNL1     0.0317
     87 H         -2.187133   -1.410191   -3.463724 H        1 UNL1     0.0317
     88 H         -6.152259   -1.977369   -4.086017 H        1 UNL1     0.0429
     89 H         -6.494217   -0.457467   -4.916196 H        1 UNL1     0.0429
     90 H         -6.178859   -1.474476   -7.08251 H        1 UNL1     0.0308
     91 H         -5.132243   -3.691044   -7.447091 H        1 UNL1     0.0233
     92 H         -4.018474   -2.668347   -6.504168 H        1 UNL1     0.0233
     93 H         -4.926232   -3.941967   -5.717739 H        1 UNL1     0.0233
     94 H         -7.640239   -3.451496   -7.060103 H        1 UNL1     0.0233
     95 H         -7.50718   -3.519666   -5.296024 H        1 UNL1     0.0233
     96 H         -8.285464   -2.122645   -6.074866 H        1 UNL1     0.0233
     97 H         4.544767   4.350911   -7.757456 H        1 UNL1     0.0280
     98 H         5.497347   3.03237   -8.382938 H        1 UNL1     0.0280
     99 H         4.332568   3.870161   -9.451174 H        1 UNL1     0.0280
     100 H         3.181201   2.231713   -10.656215 H        1 UNL1     0.2922
     101 H         1.924483   -4.850125   -2.974466 H        1 UNL1     0.0236
     102 H         2.561066   -3.959148   -1.536765 H        1 UNL1     0.0236
     103 H         3.276742   -3.769612   -3.107554 H        1 UNL1     0.0236
     104 H         0.971576   -3.967864   -0.581848 H        1 UNL1     0.2098
     105 H         -0.5464   -1.004472   1.305094 H        1 UNL1     0.0234
     106 H         0.638132   0.31306   1.533324 H        1 UNL1     0.0234
     107 H         0.0   0.0   0.0 H        1 UNL1     0.0234
     108 H         3.308038   -0.866899   -0.909746 H        1 UNL1     0.2098
     109 H         0.836313   3.013644   -1.0738 H        1 UNL1     0.0234
     110 H         1.126626   1.250794   -0.929302 H        1 UNL1     0.0234
     111 H         0.051045   2.052169   0.161463 H        1 UNL1     0.0234
     112 H         0.988751   4.10633   4.142956 H        1 UNL1     0.0342
     113 H         1.254492   3.463364   5.802538 H        1 UNL1     0.0342
     114 H         2.557579   3.427502   4.611467 H        1 UNL1     0.0342
     115 H         4.765501   1.808013   2.638885 H        1 UNL1     0.0234
     116 H         4.859224   0.319447   3.585549 H        1 UNL1     0.0234
     117 H         5.36402   0.405507   1.885131 H        1 UNL1     0.0234
     118 H         3.316012   4.029006   -3.278411 H        1 UNL1     0.0309
     119 H         2.78701   4.252405   -4.974969 H        1 UNL1     0.0309
     120 H         1.81308   3.374273   -3.816305 H        1 UNL1     0.0309
     121 H         6.570214   2.434982   1.059973 H        1 UNL1     0.0524
     122 H         5.71805   3.878933   0.49812 H        1 UNL1     0.0524
     123 H         5.281847   3.152123   2.065034 H        1 UNL1     0.0524
@<TRIPOS>BOND
     1     1     2    1
     2     1    42    1
     3     2     3    2
     4     3     4    1
     5     4     5    2
     6     5     7    1
     7     6    75    1
     8     6    76    1
     9     6    77    1
    10     7     9   am
    11     9    10    1
    12    10    11    2
    13    10    43    1
    14    11    14    1
    15    11    15    1
    16    12    13   ar
    17    12    27   ar
    18    12    43    1
    19    13    14    1
    20    13    30   ar
    21    14    17    2
    22    15    16    1
    23    16    17    1
    24    16    18    1
    25    16    22    1
    26    18    19    1
    27    19    20    1
    28    20    21    1
    29    21    22    1
    30    23    24    1
    31    23    88    1
    32    23    89    1
    33    24    25    1
    34    24    26    1
    35    24    90    1
    36    25    91    1
    37    25    92    1
    38    25    93    1
    39    26    94    1
    40    26    95    1
    41    26    96    1
    42    27    28   ar
    43    28    29   ar
    44    29    30   ar
    45    29    31    1
    46    30    33    1
    47    31    32    1
    48    32    33    1
    49    32    35    1
    50    34    97    1
    51    34    98    1
    52    34    99    1
    53    35    61    1
    54    36    37    1
    55    36    60    1
    56    37    38    1
    57    38    39    1
    58    39    40    1
    59    40    41    1
    60    41    42    1
    61    45   100    1
    62    47   101    1
    63    47   102    1
    64    47   103    1
    65    48   104    1
    66    49   105    1
    67    49   106    1
    68    49   107    1
    69    50   108    1
    70    51    59    1
    71    52   109    1
    72    52   110    1
    73    52   111    1
    74    53    54    1
    75    54    55    2
    76    54    56    1
    77    56   112    1
    78    56   113    1
    79    56   114    1
    80    57   115    1
    81    57   116    1
    82    57   117    1
    83    58   118    1
    84    58   119    1
    85    58   120    1
    86    59   121    1
    87    59   122    1
    88    59   123    1
    89    60    61    2
    90     1    47    1
    91     1    62    1
    92     2    63    1
    93     3    64    1
    94     4    65    1
    95     5     6    1
    96     7     8    2
    97     9    78    1
    98    15    79    1
    99    18    80    1
   100    18    81    1
   101    19    82    1
   102    19    83    1
   103    20    23    1
   104    21    84    1
   105    21    85    1
   106    22    86    1
   107    22    87    1
   108    27    45    1
   109    28    34    1
   110    32    58    1
   111    33    46    2
   112    36    51    1
   113    36    66    1
   114    37    52    1
   115    37    67    1
   116    38    53    1
   117    38    68    1
   118    42    48    1
   119    42    72    1
   120    43    44    2
   121    60    73    1
   122    61    74    1
   123    39    69    1
   124    39    57    1
   125    40    70    1
   126    40    50    1
   127    41    71    1
   128    41    49    1
