@<TRIPOS>MOLECULE
*****
 123 128 0 0 0
SMALL
GASTEIGER

@<TRIPOS>ATOM
     1 C         5.164214   1.765253   0.462654 C.3        1 UNL1     0.0009
     2 C         6.59366   2.575737   -0.395738 C.2        1 UNL1     -0.0787
     3 C         7.872177   2.481476   -1.06846 C.2        1 UNL1     -0.0649
     4 C         8.741554   3.71922   -1.829072 C.2        1 UNL1     -0.0542
     5 C         9.755491   4.014904   -2.773308 C.2        1 UNL1     0.0115
     6 C         10.880907   3.392861   -3.644986 C.3        1 UNL1     -0.0348
     7 C         9.842805   5.498332   -3.380603 C.2        1 UNL1     0.2441
     8 O         10.666137   6.322662   -3.007602 O.2        1 UNL1     -0.2702
     9 N         9.08553   5.702682   -4.547191 N.am        1 UNL1     -0.2772
     10 C         7.803334   6.085361   -4.226486 C.2        1 UNL1     0.1049
     11 C         6.962243   5.111333   -3.929741 C.2        1 UNL1     0.0801
     12 C         6.507603   7.688179   -2.808956 C.ar        1 UNL1     0.0753
     13 C         5.754587   6.557956   -2.357104 C.ar        1 UNL1     0.0305
     14 C         5.872118   5.2525   -3.002877 C.2        1 UNL1     0.0924
     15 N         7.088201   3.782718   -4.089251 N.pl3        1 UNL1     -0.3170
     16 C         5.821986   3.179592   -3.768011 C.3        1 UNL1     0.1275
     17 N         5.18794   4.133006   -2.784797 N.2        1 UNL1     -0.2557
     18 C         4.962046   3.235702   -5.027001 C.3        1 UNL1     0.0016
     19 C         5.712897   2.553774   -6.159602 C.3        1 UNL1     0.0026
     20 N         5.989515   1.176614   -5.774971 N.3        1 UNL1     -0.3018
     21 C         6.760154   1.018893   -4.539816 C.3        1 UNL1     0.0026
     22 C         5.985376   1.707172   -3.414699 C.3        1 UNL1     0.0016
     23 C         6.430531   0.358261   -6.886928 C.3        1 UNL1     0.0012
     24 C         5.27052   0.104925   -7.862607 C.3        1 UNL1     -0.0339
     25 C         5.356001   1.027571   -9.089585 C.3        1 UNL1     -0.0615
     26 C         5.239018   -1.359194   -8.265278 C.3        1 UNL1     -0.0615
     27 C         6.301886   8.955329   -2.268466 C.ar        1 UNL1     0.1347
     28 C         5.347252   9.222035   -1.303275 C.ar        1 UNL1     0.0342
     29 C         4.651822   8.085464   -0.838791 C.ar        1 UNL1     0.1435
     30 C         4.872554   6.804034   -1.345186 C.ar        1 UNL1     0.0774
     31 O         3.615169   8.195908   0.02037 O.3        1 UNL1     -0.4436
     32 C         2.896633   6.960779   -0.117598 C.3        1 UNL1     0.3143
     33 C         3.91014   5.970778   -0.655105 C.2        1 UNL1     0.2504
     34 C         4.898509   10.586809   -0.860417 C.3        1 UNL1     -0.0327
     35 O         2.544604   6.523214   1.200683 O.2        1 UNL1     -0.4528
     36 C         -0.69443   4.580681   0.822111 C.3        1 UNL1     0.0854
     37 C         -1.000656   3.318948   -0.073308 C.3        1 UNL1     0.0236
     38 C         -1.592882   2.056174   0.718156 C.3        1 UNL1     0.1131
     39 C         -0.858319   1.527817   2.015663 C.3        1 UNL1     0.0200
     40 C         0.803527   1.387543   2.047745 C.3        1 UNL1     0.0661
     41 C         1.758902   0.621507   0.873838 C.3        1 UNL1     0.0091
     42 C         3.462212   0.989351   0.300402 C.3        1 UNL1     0.0661
     43 C         7.452135   7.483248   -3.935065 C.2        1 UNL1     0.2131
     44 O         7.845223   8.382434   -4.655956 O.2        1 UNL1     -0.2851
     45 O         7.108342   9.992906   -2.73161 O.3        1 UNL1     -0.5056
     46 O         3.93066   4.767328   -0.524179 O.2        1 UNL1     -0.2836
     47 C         5.56982   1.337344   1.898745 C.3        1 UNL1     -0.0566
     48 O         3.915686   -0.420309   0.380006 O.3        1 UNL1     -0.3909
     49 C         0.918664   0.386008   -0.36149 C.3        1 UNL1     -0.0577
     50 O         1.402012   2.607385   2.437007 O.3        1 UNL1     -0.3910
     51 O         -0.810279   4.390918   2.214232 O.3        1 UNL1     -0.3753
     52 C         0.037961   3.161533   -1.231516 C.3        1 UNL1     -0.0564
     53 O         -2.197121   1.015091   -0.178152 O.3        1 UNL1     -0.4608
     54 C         -2.394356   -0.300364   0.151401 C.2        1 UNL1     0.3042
     55 O         -1.747753   -1.27257   -0.236619 O.2        1 UNL1     -0.2512
     56 C         -3.502369   -0.512206   1.143441 C.3        1 UNL1     0.0332
     57 C         -1.574527   2.194802   3.280713 C.3        1 UNL1     -0.0567
     58 C         1.814732   7.202227   -1.195894 C.3        1 UNL1     0.0210
     59 C         -1.12314   5.569089   2.955782 C.3        1 UNL1     0.0372
     60 C         0.631281   5.213918   0.584073 C.2        1 UNL1     -0.0208
     61 C         1.547594   5.65223   1.448364 C.2        1 UNL1     0.0882
     62 H         4.685666   2.747934   0.552333 H        1 UNL1     0.0365
     63 H         6.32466   3.628712   -0.289189 H        1 UNL1     0.0576
     64 H         8.331669   1.516031   -1.291819 H        1 UNL1     0.0615
     65 H         8.253489   4.633148   -1.479771 H        1 UNL1     0.0622
     66 H         -1.443132   5.32478   0.51583 H        1 UNL1     0.0645
     67 H         -1.870524   3.625436   -0.679901 H        1 UNL1     0.0362
     68 H         -2.539384   2.49013   1.075001 H        1 UNL1     0.0741
     69 H         -1.185561   0.515719   2.213092 H        1 UNL1     0.0359
     70 H         0.922232   0.727767   2.928464 H        1 UNL1     0.0600
     71 H         1.808061   -0.399419   1.300745 H        1 UNL1     0.0348
     72 H         3.36017   1.477439   1.280541 H        1 UNL1     0.0602
     73 H         0.742855   5.411306   -0.453153 H        1 UNL1     0.0628
     74 H         1.536593   5.441753   2.518324 H        1 UNL1     0.1022
     75 H         10.878213   2.279959   -3.552925 H        1 UNL1     0.0279
     76 H         10.799078   3.539219   -4.719673 H        1 UNL1     0.0279
     77 H         11.888132   3.638347   -3.277649 H        1 UNL1     0.0279
     78 H         9.023399   4.832423   -5.071467 H        1 UNL1     0.1553
     79 H         7.751419   3.356693   -4.7102 H        1 UNL1     0.1484
     80 H         4.003404   2.741774   -4.827482 H        1 UNL1     0.0317
     81 H         4.730672   4.271672   -5.296972 H        1 UNL1     0.0317
     82 H         6.640497   3.08796   -6.412812 H        1 UNL1     0.0428
     83 H         5.082682   2.606736   -7.0479 H        1 UNL1     0.0428
     84 H         6.885471   -0.023603   -4.231093 H        1 UNL1     0.0428
     85 H         7.78849   1.390158   -4.649373 H        1 UNL1     0.0428
     86 H         6.507573   1.458651   -2.509417 H        1 UNL1     0.0317
     87 H         5.00815   1.226468   -3.284126 H        1 UNL1     0.0317
     88 H         7.221965   0.902452   -7.4187 H        1 UNL1     0.0429
     89 H         6.868039   -0.586058   -6.538184 H        1 UNL1     0.0429
     90 H         4.320826   0.294679   -7.348517 H        1 UNL1     0.0308
     91 H         6.30886   0.905611   -9.613311 H        1 UNL1     0.0233
     92 H         4.536859   0.824527   -9.783407 H        1 UNL1     0.0233
     93 H         5.273848   2.087827   -8.821365 H        1 UNL1     0.0233
     94 H         4.57979   -1.499336   -9.128767 H        1 UNL1     0.0233
     95 H         6.241823   -1.690192   -8.549504 H        1 UNL1     0.0233
     96 H         4.87737   -1.990018   -7.448431 H        1 UNL1     0.0233
     97 H         4.054532   10.536991   -0.17891 H        1 UNL1     0.0280
     98 H         5.687899   11.127563   -0.322176 H        1 UNL1     0.0280
     99 H         4.598113   11.179876   -1.739695 H        1 UNL1     0.0280
     100 H         6.640756   10.770072   -2.982604 H        1 UNL1     0.2922
     101 H         4.688004   1.005367   2.446329 H        1 UNL1     0.0236
     102 H         6.118936   2.109182   2.437003 H        1 UNL1     0.0236
     103 H         6.242877   0.463742   1.89602 H        1 UNL1     0.0236
     104 H         4.25257   -0.571127   1.284845 H        1 UNL1     0.2098
     105 H         0.700023   1.284027   -0.933826 H        1 UNL1     0.0234
     106 H         1.286933   -0.400995   -1.019466 H        1 UNL1     0.0234
     107 H         0.0   -0.0   0.0 H        1 UNL1     0.0234
     108 H         1.251452   3.247731   1.715164 H        1 UNL1     0.2098
     109 H         1.066632   3.063787   -0.85736 H        1 UNL1     0.0234
     110 H         -0.188866   2.325952   -1.902409 H        1 UNL1     0.0234
     111 H         0.043956   4.038997   -1.891794 H        1 UNL1     0.0234
     112 H         -3.593028   -1.577075   1.378344 H        1 UNL1     0.0342
     113 H         -3.360101   0.076762   2.048272 H        1 UNL1     0.0342
     114 H         -4.444396   -0.188168   0.68003 H        1 UNL1     0.0342
     115 H         -2.661699   2.036702   3.264917 H        1 UNL1     0.0234
     116 H         -1.20412   1.833582   4.242153 H        1 UNL1     0.0234
     117 H         -1.519546   3.297018   3.2869 H        1 UNL1     0.0234
     118 H         0.912554   7.682138   -0.777842 H        1 UNL1     0.0309
     119 H         2.17629   7.795066   -2.042073 H        1 UNL1     0.0309
     120 H         1.430084   6.269067   -1.621765 H        1 UNL1     0.0309
     121 H         -0.744633   5.431593   3.968296 H        1 UNL1     0.0524
     122 H         -0.637498   6.467095   2.53892 H        1 UNL1     0.0524
     123 H         -2.19782   5.726468   2.975509 H        1 UNL1     0.0524
@<TRIPOS>BOND
     1     1     2    1
     2     1    42    1
     3     2     3    2
     4     3     4    1
     5     4     5    2
     6     5     7    1
     7     6    75    1
     8     6    76    1
     9     6    77    1
    10     7     9   am
    11     9    10    1
    12    10    11    2
    13    10    43    1
    14    11    14    1
    15    11    15    1
    16    12    13   ar
    17    12    27   ar
    18    12    43    1
    19    13    14    1
    20    13    30   ar
    21    14    17    2
    22    15    16    1
    23    16    17    1
    24    16    18    1
    25    16    22    1
    26    18    19    1
    27    19    20    1
    28    20    21    1
    29    21    22    1
    30    23    24    1
    31    23    88    1
    32    23    89    1
    33    24    25    1
    34    24    26    1
    35    24    90    1
    36    25    91    1
    37    25    92    1
    38    25    93    1
    39    26    94    1
    40    26    95    1
    41    26    96    1
    42    27    28   ar
    43    28    29   ar
    44    29    30   ar
    45    29    31    1
    46    30    33    1
    47    31    32    1
    48    32    33    1
    49    32    35    1
    50    34    97    1
    51    34    98    1
    52    34    99    1
    53    35    61    1
    54    36    37    1
    55    36    60    1
    56    37    38    1
    57    38    39    1
    58    39    40    1
    59    40    41    1
    60    41    42    1
    61    45   100    1
    62    47   101    1
    63    47   102    1
    64    47   103    1
    65    48   104    1
    66    49   105    1
    67    49   106    1
    68    49   107    1
    69    50   108    1
    70    51    59    1
    71    52   109    1
    72    52   110    1
    73    52   111    1
    74    53    54    1
    75    54    55    2
    76    54    56    1
    77    56   112    1
    78    56   113    1
    79    56   114    1
    80    57   115    1
    81    57   116    1
    82    57   117    1
    83    58   118    1
    84    58   119    1
    85    58   120    1
    86    59   121    1
    87    59   122    1
    88    59   123    1
    89    60    61    2
    90     1    47    1
    91     1    62    1
    92     2    63    1
    93     3    64    1
    94     4    65    1
    95     5     6    1
    96     7     8    2
    97     9    78    1
    98    15    79    1
    99    18    80    1
   100    18    81    1
   101    19    82    1
   102    19    83    1
   103    20    23    1
   104    21    84    1
   105    21    85    1
   106    22    86    1
   107    22    87    1
   108    27    45    1
   109    28    34    1
   110    32    58    1
   111    33    46    2
   112    36    51    1
   113    36    66    1
   114    37    52    1
   115    37    67    1
   116    38    53    1
   117    38    68    1
   118    42    48    1
   119    42    72    1
   120    43    44    2
   121    60    73    1
   122    61    74    1
   123    39    69    1
   124    39    57    1
   125    40    70    1
   126    40    50    1
   127    41    71    1
   128    41    49    1
