@<TRIPOS>MOLECULE
*****
 123 128 0 0 0
SMALL
GASTEIGER

@<TRIPOS>ATOM
     1 C         -2.224951   -0.220079   -3.539967 C.3        1 UNL1     0.0009
     2 C         -1.788523   0.504712   -5.189587 C.2        1 UNL1     -0.0787
     3 C         -1.960724   1.531489   -6.19563 C.2        1 UNL1     -0.0649
     4 C         -1.08329   1.742318   -7.628117 C.2        1 UNL1     -0.0542
     5 C         -0.722489   2.661433   -8.644054 C.2        1 UNL1     0.0115
     6 C         -1.018267   4.071049   -9.226138 C.3        1 UNL1     -0.0348
     7 C         0.545571   2.334698   -9.572632 C.2        1 UNL1     0.2441
     8 O         0.441947   1.904861   -10.713258 O.2        1 UNL1     -0.2702
     9 N         1.772205   2.81951   -9.086341 N.am        1 UNL1     -0.2772
     10 C         2.35455   1.89718   -8.247589 C.2        1 UNL1     0.1049
     11 C         1.932112   1.900059   -6.996286 C.2        1 UNL1     0.0801
     12 C         2.962518   -0.523298   -8.077302 C.ar        1 UNL1     0.0753
     13 C         2.303789   -0.518663   -6.806608 C.ar        1 UNL1     0.0305
     14 C         1.882622   0.726073   -6.167623 C.2        1 UNL1     0.0924
     15 N         1.171854   2.79568   -6.343294 N.pl3        1 UNL1     -0.3170
     16 C         1.145439   2.420169   -4.954572 C.3        1 UNL1     0.1275
     17 N         1.354785   0.925571   -4.963249 N.2        1 UNL1     -0.2557
     18 C         2.387586   3.017978   -4.300816 C.3        1 UNL1     0.0016
     19 C         2.391483   4.518558   -4.54543 C.3        1 UNL1     0.0026
     20 N         1.176203   5.087871   -3.979741 N.3        1 UNL1     -0.3018
     21 C         -0.073131   4.530909   -4.502548 C.3        1 UNL1     0.0026
     22 C         -0.057744   3.023661   -4.242045 C.3        1 UNL1     0.0016
     23 C         1.218738   6.533937   -3.891832 C.3        1 UNL1     0.0012
     24 C         -0.158259   7.134031   -4.216673 C.3        1 UNL1     -0.0339
     25 C         -1.075021   7.138734   -2.982338 C.3        1 UNL1     -0.0615
     26 C         0.004954   8.528043   -4.797079 C.3        1 UNL1     -0.0615
     27 C         3.468445   -1.700414   -8.623702 C.ar        1 UNL1     0.1347
     28 C         3.410964   -2.922278   -7.977331 C.ar        1 UNL1     0.0342
     29 C         2.71483   -2.90246   -6.750071 C.ar        1 UNL1     0.1435
     30 C         2.171097   -1.737569   -6.207297 C.ar        1 UNL1     0.0774
     31 O         2.667943   -3.989103   -5.948812 O.3        1 UNL1     -0.4436
     32 C         2.319828   -3.471532   -4.655827 C.3        1 UNL1     0.3143
     33 C         1.627723   -2.151798   -4.930611 C.2        1 UNL1     0.2504
     34 C         4.147243   -4.1691   -8.381594 C.3        1 UNL1     -0.0327
     35 O         1.335849   -4.350045   -4.096138 O.2        1 UNL1     -0.4528
     36 C         1.817478   -4.190308   -0.334409 C.3        1 UNL1     0.0854
     37 C         1.773258   -2.938056   0.623418 C.3        1 UNL1     0.0236
     38 C         0.738958   -3.056377   1.84324 C.3        1 UNL1     0.1131
     39 C         -0.761911   -3.469868   1.562727 C.3        1 UNL1     0.0200
     40 C         -1.595499   -2.805804   0.279533 C.3        1 UNL1     0.0661
     41 C         -1.705071   -1.152828   -0.085538 C.3        1 UNL1     0.0091
     42 C         -1.846736   -0.298113   -1.702571 C.3        1 UNL1     0.0661
     43 C         3.168425   0.781695   -8.753214 C.2        1 UNL1     0.2131
     44 O         4.021374   0.973483   -9.600817 O.2        1 UNL1     -0.2851
     45 O         4.054742   -1.626048   -9.885512 O.3        1 UNL1     -0.5056
     46 O         0.798049   -1.58165   -4.257986 O.2        1 UNL1     -0.2836
     47 C         -3.612231   -0.913703   -3.605697 C.3        1 UNL1     -0.0566
     48 O         -2.957659   0.583   -1.268286 O.3        1 UNL1     -0.3909
     49 C         -0.665079   -0.405399   0.718986 C.3        1 UNL1     -0.0577
     50 O         -1.370236   -3.547718   -0.902221 O.3        1 UNL1     -0.3910
     51 O         0.832596   -5.173463   -0.108918 O.3        1 UNL1     -0.3753
     52 C         1.988212   -1.600469   -0.157356 C.3        1 UNL1     -0.0564
     53 O         0.960276   -2.034214   2.91959 O.3        1 UNL1     -0.4608
     54 C         0.451522   -0.761785   2.924477 C.2        1 UNL1     0.3042
     55 O         0.591235   0.101757   2.059253 O.2        1 UNL1     -0.2512
     56 C         -0.410255   -0.463247   4.118181 C.3        1 UNL1     0.0332
     57 C         -0.877585   -5.048902   1.789542 C.3        1 UNL1     -0.0567
     58 C         3.652736   -3.192728   -3.922918 C.3        1 UNL1     0.0210
     59 C         -0.487302   -4.666668   0.083158 C.3        1 UNL1     0.0372
     60 C         1.78127   -3.871894   -1.78784 C.2        1 UNL1     -0.0208
     61 C         1.076884   -4.424266   -2.776511 C.2        1 UNL1     0.0882
     62 H         -1.475397   -1.002986   -3.707113 H        1 UNL1     0.0365
     63 H         -1.098877   -0.2524   -5.568586 H        1 UNL1     0.0576
     64 H         -2.603106   2.398248   -6.024806 H        1 UNL1     0.0615
     65 H         -0.543051   0.798825   -7.744073 H        1 UNL1     0.0622
     66 H         2.801244   -4.644384   -0.149837 H        1 UNL1     0.0645
     67 H         2.741456   -2.971001   1.152631 H        1 UNL1     0.0362
     68 H         1.181891   -3.910542   2.377781 H        1 UNL1     0.0741
     69 H         -1.36669   -3.18259   2.412505 H        1 UNL1     0.0359
     70 H         -2.631822   -3.060807   0.572906 H        1 UNL1     0.0600
     71 H         -2.631474   -0.894507   0.464012 H        1 UNL1     0.0348
     72 H         -2.151916   -1.339241   -1.882109 H        1 UNL1     0.0602
     73 H         2.538193   -3.16084   -2.008562 H        1 UNL1     0.0628
     74 H         0.246361   -5.115715   -2.630332 H        1 UNL1     0.1022
     75 H         -1.873392   4.027622   -9.943012 H        1 UNL1     0.0279
     76 H         -1.344408   4.829624   -8.518138 H        1 UNL1     0.0279
     77 H         -0.210599   4.441541   -9.874297 H        1 UNL1     0.0279
     78 H         1.614843   3.668014   -8.546568 H        1 UNL1     0.1553
     79 H         1.032149   3.739523   -6.654062 H        1 UNL1     0.1484
     80 H         2.373694   2.786956   -3.228808 H        1 UNL1     0.0317
     81 H         3.29917   2.566613   -4.706938 H        1 UNL1     0.0317
     82 H         2.478986   4.756352   -5.615808 H        1 UNL1     0.0428
     83 H         3.286322   4.924375   -4.072539 H        1 UNL1     0.0428
     84 H         -0.967916   4.917776   -4.005048 H        1 UNL1     0.0428
     85 H         -0.223992   4.787405   -5.560266 H        1 UNL1     0.0428
     86 H         -1.035868   2.672764   -4.514319 H        1 UNL1     0.0317
     87 H         -0.009888   2.830285   -3.163429 H        1 UNL1     0.0317
     88 H         1.484297   6.805822   -2.861855 H        1 UNL1     0.0429
     89 H         1.996289   6.950445   -4.545062 H        1 UNL1     0.0429
     90 H         -0.634244   6.536085   -5.002874 H        1 UNL1     0.0308
     91 H         -2.129141   7.08028   -3.269598 H        1 UNL1     0.0233
     92 H         -0.836647   6.302484   -2.320921 H        1 UNL1     0.0233
     93 H         -0.959449   8.047781   -2.37975 H        1 UNL1     0.0233
     94 H         0.126564   8.472659   -5.884268 H        1 UNL1     0.0233
     95 H         -0.885958   9.126664   -4.587578 H        1 UNL1     0.0233
     96 H         0.877951   9.035458   -4.377109 H        1 UNL1     0.0233
     97 H         5.016882   -4.349443   -7.756746 H        1 UNL1     0.0280
     98 H         3.521462   -5.066668   -8.292 H        1 UNL1     0.0280
     99 H         4.485893   -4.075335   -9.426399 H        1 UNL1     0.0280
     100 H         3.818342   -0.862811   -10.382712 H        1 UNL1     0.2922
     101 H         -3.833348   -1.196834   -4.63458 H        1 UNL1     0.0236
     102 H         -4.410719   -0.317824   -3.164871 H        1 UNL1     0.0236
     103 H         -3.627572   -1.863056   -3.044728 H        1 UNL1     0.0236
     104 H         -2.932545   0.630142   -0.29252 H        1 UNL1     0.2098
     105 H         -1.059948   0.418155   1.308604 H        1 UNL1     0.0234
     106 H         -0.02452   -1.037296   1.334061 H        1 UNL1     0.0234
     107 H         0.0   0.0   0.0 H        1 UNL1     0.0234
     108 H         -0.46577   -3.340553   -1.206839 H        1 UNL1     0.2098
     109 H         1.2486   -1.462961   -0.958465 H        1 UNL1     0.0234
     110 H         1.992716   -0.718744   0.492477 H        1 UNL1     0.0234
     111 H         2.969065   -1.572783   -0.650416 H        1 UNL1     0.0234
     112 H         -1.464797   -0.597364   3.858759 H        1 UNL1     0.0342
     113 H         -0.139795   -1.0705   4.980699 H        1 UNL1     0.0342
     114 H         -0.262437   0.590161   4.39322 H        1 UNL1     0.0342
     115 H         -1.889718   -5.41914   1.575772 H        1 UNL1     0.0234
     116 H         -0.179624   -5.635928   1.189291 H        1 UNL1     0.0234
     117 H         -0.758186   -5.351776   2.844034 H        1 UNL1     0.0234
     118 H         3.795467   -2.117502   -3.71671 H        1 UNL1     0.0309
     119 H         3.75449   -3.753254   -2.988221 H        1 UNL1     0.0309
     120 H         4.527821   -3.452034   -4.528799 H        1 UNL1     0.0309
     121 H         -0.871889   -5.091355   1.010029 H        1 UNL1     0.0524
     122 H         -0.502707   -3.569162   0.189366 H        1 UNL1     0.0524
     123 H         -1.123437   -4.949147   -0.750888 H        1 UNL1     0.0524
@<TRIPOS>BOND
     1     1     2    1
     2     1    42    1
     3     2     3    2
     4     3     4    1
     5     4     5    2
     6     5     7    1
     7     6    75    1
     8     6    76    1
     9     6    77    1
    10     7     9   am
    11     9    10    1
    12    10    11    2
    13    10    43    1
    14    11    14    1
    15    11    15    1
    16    12    13   ar
    17    12    27   ar
    18    12    43    1
    19    13    14    1
    20    13    30   ar
    21    14    17    2
    22    15    16    1
    23    16    17    1
    24    16    18    1
    25    16    22    1
    26    18    19    1
    27    19    20    1
    28    20    21    1
    29    21    22    1
    30    23    24    1
    31    23    88    1
    32    23    89    1
    33    24    25    1
    34    24    26    1
    35    24    90    1
    36    25    91    1
    37    25    92    1
    38    25    93    1
    39    26    94    1
    40    26    95    1
    41    26    96    1
    42    27    28   ar
    43    28    29   ar
    44    29    30   ar
    45    29    31    1
    46    30    33    1
    47    31    32    1
    48    32    33    1
    49    32    35    1
    50    34    97    1
    51    34    98    1
    52    34    99    1
    53    35    61    1
    54    36    37    1
    55    36    60    1
    56    37    38    1
    57    38    39    1
    58    39    40    1
    59    40    41    1
    60    41    42    1
    61    45   100    1
    62    47   101    1
    63    47   102    1
    64    47   103    1
    65    48   104    1
    66    49   105    1
    67    49   106    1
    68    49   107    1
    69    50   108    1
    70    51    59    1
    71    52   109    1
    72    52   110    1
    73    52   111    1
    74    53    54    1
    75    54    55    2
    76    54    56    1
    77    56   112    1
    78    56   113    1
    79    56   114    1
    80    57   115    1
    81    57   116    1
    82    57   117    1
    83    58   118    1
    84    58   119    1
    85    58   120    1
    86    59   121    1
    87    59   122    1
    88    59   123    1
    89    60    61    2
    90     1    47    1
    91     1    62    1
    92     2    63    1
    93     3    64    1
    94     4    65    1
    95     5     6    1
    96     7     8    2
    97     9    78    1
    98    15    79    1
    99    18    80    1
   100    18    81    1
   101    19    82    1
   102    19    83    1
   103    20    23    1
   104    21    84    1
   105    21    85    1
   106    22    86    1
   107    22    87    1
   108    27    45    1
   109    28    34    1
   110    32    58    1
   111    33    46    2
   112    36    51    1
   113    36    66    1
   114    37    52    1
   115    37    67    1
   116    38    53    1
   117    38    68    1
   118    42    48    1
   119    42    72    1
   120    43    44    2
   121    60    73    1
   122    61    74    1
   123    39    69    1
   124    39    57    1
   125    40    70    1
   126    40    50    1
   127    41    71    1
   128    41    49    1
