@<TRIPOS>MOLECULE
*****
 123 128 0 0 0
SMALL
GASTEIGER

@<TRIPOS>ATOM
     1 C         5.069775   2.039554   -0.369957 C.3        1 UNL1     0.0009
     2 C         6.616808   2.486827   0.548559 C.2        1 UNL1     -0.0787
     3 C         7.469163   3.482667   1.163247 C.2        1 UNL1     -0.0649
     4 C         8.882736   3.231707   2.06057 C.2        1 UNL1     -0.0542
     5 C         9.773775   3.797305   3.005676 C.2        1 UNL1     0.0115
     6 C         10.150965   5.108069   3.749281 C.3        1 UNL1     -0.0348
     7 C         10.771726   2.829537   3.808487 C.2        1 UNL1     0.2441
     8 O         11.956961   2.715263   3.527978 O.2        1 UNL1     -0.2702
     9 N         10.257133   2.32219   5.014283 N.am        1 UNL1     -0.2772
     10 C         9.567261   1.153364   4.787912 C.2        1 UNL1     0.1049
     11 C         8.316295   1.284504   4.385282 C.2        1 UNL1     0.0801
     12 C         9.743502   -1.064238   3.64401 C.ar        1 UNL1     0.0753
     13 C         8.466768   -0.778276   3.063678 C.ar        1 UNL1     0.0305
     14 C         7.653664   0.346835   3.519791 C.2        1 UNL1     0.0924
     15 N         7.527638   2.372493   4.356541 N.pl3        1 UNL1     -0.3170
     16 C         6.202551   1.945207   3.993466 C.3        1 UNL1     0.1275
     17 N         6.419662   0.699012   3.170312 N.2        1 UNL1     -0.2557
     18 C         5.507178   1.491464   5.273417 C.3        1 UNL1     0.0016
     19 C         5.545818   2.631744   6.278335 C.3        1 UNL1     0.0026
     20 N         4.875743   3.788111   5.699679 N.3        1 UNL1     -0.3018
     21 C         5.435689   4.261251   4.432016 C.3        1 UNL1     0.0026
     22 C         5.382735   3.101405   3.436101 C.3        1 UNL1     0.0016
     23 C         4.593495   4.822696   6.674673 C.3        1 UNL1     0.0012
     24 C         3.488967   4.36568   7.640545 C.3        1 UNL1     -0.0339
     25 C         4.074879   3.888849   8.979723 C.3        1 UNL1     -0.0615
     26 C         2.476404   5.480249   7.838612 C.3        1 UNL1     -0.0615
     27 C         10.458   -2.206138   3.289501 C.ar        1 UNL1     0.1347
     28 C         9.982194   -3.152272   2.399283 C.ar        1 UNL1     0.0342
     29 C         8.745413   -2.82518   1.803844 C.ar        1 UNL1     0.1435
     30 C         8.035154   -1.666986   2.12218 C.ar        1 UNL1     0.0774
     31 O         8.098135   -3.69647   0.999548 O.3        1 UNL1     -0.4436
     32 C         6.738002   -3.237371   0.987679 C.3        1 UNL1     0.3143
     33 C         6.812441   -1.768664   1.353153 C.2        1 UNL1     0.2504
     34 C         10.571552   -4.514817   2.16216 C.3        1 UNL1     -0.0327
     35 O         6.276625   -3.30729   -0.367125 O.2        1 UNL1     -0.4528
     36 C         2.542294   -3.956142   -0.16256 C.3        1 UNL1     0.0854
     37 C         1.422487   -3.112179   0.559439 C.3        1 UNL1     0.0236
     38 C         0.202774   -2.663684   -0.380186 C.3        1 UNL1     0.1131
     39 C         0.496544   -1.947148   -1.759513 C.3        1 UNL1     0.0200
     40 C         1.654921   -0.751148   -1.860432 C.3        1 UNL1     0.0661
     41 C         1.789132   0.591465   -0.832332 C.3        1 UNL1     0.0091
     42 C         3.270776   1.512525   -0.265074 C.3        1 UNL1     0.0661
     43 C         10.241252   -0.150771   4.702348 C.2        1 UNL1     0.2131
     44 O         11.077498   -0.469642   5.52803 O.2        1 UNL1     -0.2851
     45 O         11.71327   -2.386764   3.866657 O.3        1 UNL1     -0.5056
     46 O         6.046669   -0.878778   1.057265 O.2        1 UNL1     -0.2836
     47 C         5.191902   2.447606   -1.862794 C.3        1 UNL1     -0.0566
     48 O         2.691303   2.847169   -0.551523 O.3        1 UNL1     -0.3909
     49 C         0.918716   0.364058   0.383462 C.3        1 UNL1     -0.0577
     50 O         2.932062   -1.30901   -2.095854 O.3        1 UNL1     -0.3910
     51 O         2.426082   -4.063165   -1.563442 O.3        1 UNL1     -0.3753
     52 C         2.019907   -2.167953   1.653275 C.3        1 UNL1     -0.0564
     53 O         -0.996069   -2.179773   0.382004 O.3        1 UNL1     -0.4608
     54 C         -1.985332   -1.374873   -0.119417 C.2        1 UNL1     0.3042
     55 O         -2.164562   -0.179722   0.111516 O.2        1 UNL1     -0.2512
     56 C         -2.888711   -2.070573   -1.097487 C.3        1 UNL1     0.0332
     57 C         0.483191   -3.069803   -2.898655 C.3        1 UNL1     -0.0567
     58 C         6.009977   -3.997175   2.120908 C.3        1 UNL1     0.0210
     59 C         3.015457   -5.234483   -2.126039 C.3        1 UNL1     0.0372
     60 C         3.937543   -3.522191   0.120503 C.2        1 UNL1     -0.0208
     61 C         4.972837   -3.349351   -0.70232 C.2        1 UNL1     0.0882
     62 H         5.36167   0.984183   -0.309124 H        1 UNL1     0.0365
     63 H         7.113412   1.515439   0.596081 H        1 UNL1     0.0576
     64 H         7.16511   4.529144   1.237705 H        1 UNL1     0.0615
     65 H         9.140131   2.18909   1.855193 H        1 UNL1     0.0622
     66 H         2.447482   -4.964001   0.265548 H        1 UNL1     0.0645
     67 H         0.928759   -3.838449   1.228262 H        1 UNL1     0.0362
     68 H         -0.198802   -3.653608   -0.645348 H        1 UNL1     0.0741
     69 H         -0.400251   -1.436688   -2.084471 H        1 UNL1     0.0359
     70 H         1.371246   -0.291987   -2.826745 H        1 UNL1     0.0600
     71 H         1.184996   1.328448   -1.396985 H        1 UNL1     0.0348
     72 H         3.581763   0.962626   -1.165193 H        1 UNL1     0.0602
     73 H         4.07987   -3.467324   1.171208 H        1 UNL1     0.0628
     74 H         4.899704   -3.332215   -1.790251 H        1 UNL1     0.1022
     75 H         9.424544   5.920281   3.505029 H        1 UNL1     0.0279
     76 H         10.111947   5.077849   4.835851 H        1 UNL1     0.0279
     77 H         11.093885   5.545031   3.389186 H        1 UNL1     0.0279
     78 H         9.603144   2.991127   5.415405 H        1 UNL1     0.1553
     79 H         7.703537   3.202228   4.892763 H        1 UNL1     0.1484
     80 H         4.476476   1.201012   5.036655 H        1 UNL1     0.0317
     81 H         5.995076   0.603844   5.690236 H        1 UNL1     0.0317
     82 H         6.575957   2.878478   6.574726 H        1 UNL1     0.0428
     83 H         5.046337   2.286202   7.183968 H        1 UNL1     0.0428
     84 H         4.866498   5.079   3.979116 H        1 UNL1     0.0428
     85 H         6.44437   4.677557   4.560739 H        1 UNL1     0.0428
     86 H         5.673843   3.518646   2.489975 H        1 UNL1     0.0317
     87 H         4.342031   2.797376   3.269974 H        1 UNL1     0.0317
     88 H         5.508834   5.006503   7.252309 H        1 UNL1     0.0429
     89 H         4.326006   5.768591   6.1863 H        1 UNL1     0.0429
     90 H         2.935433   3.535395   7.186187 H        1 UNL1     0.0308
     91 H         4.674642   4.672131   9.452857 H        1 UNL1     0.0233
     92 H         3.278728   3.584632   9.663246 H        1 UNL1     0.0233
     93 H         4.727691   3.015379   8.862585 H        1 UNL1     0.0233
     94 H         1.830042   5.255726   8.693972 H        1 UNL1     0.0233
     95 H         2.992847   6.422012   8.044362 H        1 UNL1     0.0233
     96 H         1.846549   5.609027   6.953927 H        1 UNL1     0.0233
     97 H         9.951602   -5.118328   1.505908 H        1 UNL1     0.0280
     98 H         11.556427   -4.461516   1.680043 H        1 UNL1     0.0280
     99 H         10.67505   -5.044504   3.123314 H        1 UNL1     0.0280
     100 H         11.855117   -3.240565   4.23615 H        1 UNL1     0.2922
     101 H         4.349092   2.044874   -2.424162 H        1 UNL1     0.0236
     102 H         6.148022   2.171085   -2.305912 H        1 UNL1     0.0236
     103 H         5.123688   3.539654   -2.000533 H        1 UNL1     0.0236
     104 H         2.907335   3.069802   -1.478202 H        1 UNL1     0.2098
     105 H         1.304883   -0.375645   1.08026 H        1 UNL1     0.0234
     106 H         0.633519   1.271541   0.9155 H        1 UNL1     0.0234
     107 H         -0.0   0.0   0.0 H        1 UNL1     0.0234
     108 H         3.189939   -1.794325   -1.288552 H        1 UNL1     0.2098
     109 H         2.754046   -1.46315   1.238541 H        1 UNL1     0.0234
     110 H         1.25493   -1.615297   2.209264 H        1 UNL1     0.0234
     111 H         2.555285   -2.733449   2.427569 H        1 UNL1     0.0234
     112 H         -3.63988   -1.369573   -1.473906 H        1 UNL1     0.0342
     113 H         -2.333138   -2.5249   -1.916492 H        1 UNL1     0.0342
     114 H         -3.415307   -2.875067   -0.565838 H        1 UNL1     0.0342
     115 H         -0.438314   -3.667561   -2.872169 H        1 UNL1     0.0234
     116 H         0.590138   -2.675997   -3.911338 H        1 UNL1     0.0234
     117 H         1.248603   -3.851703   -2.754711 H        1 UNL1     0.0234
     118 H         5.676063   -4.999482   1.800146 H        1 UNL1     0.0309
     119 H         6.612814   -4.094233   3.029406 H        1 UNL1     0.0309
     120 H         5.079177   -3.506392   2.425621 H        1 UNL1     0.0309
     121 H         3.278879   -5.007535   -3.158735 H        1 UNL1     0.0524
     122 H         3.941285   -5.528866   -1.604293 H        1 UNL1     0.0524
     123 H         2.312906   -6.062333   -2.091671 H        1 UNL1     0.0524
@<TRIPOS>BOND
     1     1     2    1
     2     1    42    1
     3     2     3    2
     4     3     4    1
     5     4     5    2
     6     5     7    1
     7     6    75    1
     8     6    76    1
     9     6    77    1
    10     7     9   am
    11     9    10    1
    12    10    11    2
    13    10    43    1
    14    11    14    1
    15    11    15    1
    16    12    13   ar
    17    12    27   ar
    18    12    43    1
    19    13    14    1
    20    13    30   ar
    21    14    17    2
    22    15    16    1
    23    16    17    1
    24    16    18    1
    25    16    22    1
    26    18    19    1
    27    19    20    1
    28    20    21    1
    29    21    22    1
    30    23    24    1
    31    23    88    1
    32    23    89    1
    33    24    25    1
    34    24    26    1
    35    24    90    1
    36    25    91    1
    37    25    92    1
    38    25    93    1
    39    26    94    1
    40    26    95    1
    41    26    96    1
    42    27    28   ar
    43    28    29   ar
    44    29    30   ar
    45    29    31    1
    46    30    33    1
    47    31    32    1
    48    32    33    1
    49    32    35    1
    50    34    97    1
    51    34    98    1
    52    34    99    1
    53    35    61    1
    54    36    37    1
    55    36    60    1
    56    37    38    1
    57    38    39    1
    58    39    40    1
    59    40    41    1
    60    41    42    1
    61    45   100    1
    62    47   101    1
    63    47   102    1
    64    47   103    1
    65    48   104    1
    66    49   105    1
    67    49   106    1
    68    49   107    1
    69    50   108    1
    70    51    59    1
    71    52   109    1
    72    52   110    1
    73    52   111    1
    74    53    54    1
    75    54    55    2
    76    54    56    1
    77    56   112    1
    78    56   113    1
    79    56   114    1
    80    57   115    1
    81    57   116    1
    82    57   117    1
    83    58   118    1
    84    58   119    1
    85    58   120    1
    86    59   121    1
    87    59   122    1
    88    59   123    1
    89    60    61    2
    90     1    47    1
    91     1    62    1
    92     2    63    1
    93     3    64    1
    94     4    65    1
    95     5     6    1
    96     7     8    2
    97     9    78    1
    98    15    79    1
    99    18    80    1
   100    18    81    1
   101    19    82    1
   102    19    83    1
   103    20    23    1
   104    21    84    1
   105    21    85    1
   106    22    86    1
   107    22    87    1
   108    27    45    1
   109    28    34    1
   110    32    58    1
   111    33    46    2
   112    36    51    1
   113    36    66    1
   114    37    52    1
   115    37    67    1
   116    38    53    1
   117    38    68    1
   118    42    48    1
   119    42    72    1
   120    43    44    2
   121    60    73    1
   122    61    74    1
   123    39    69    1
   124    39    57    1
   125    40    70    1
   126    40    50    1
   127    41    71    1
   128    41    49    1
