@<TRIPOS>MOLECULE
*****
 123 128 0 0 0
SMALL
GASTEIGER

@<TRIPOS>ATOM
     1 C         -1.372855   -2.608821   -4.591376 C.3        1 UNL1     0.0009
     2 C         -2.282396   -4.066189   -5.288408 C.2        1 UNL1     -0.0787
     3 C         -2.271248   -5.373344   -5.910715 C.2        1 UNL1     -0.0649
     4 C         -3.59242   -6.377669   -6.245666 C.2        1 UNL1     -0.0542
     5 C         -4.00048   -7.705874   -6.522139 C.2        1 UNL1     0.0115
     6 C         -3.488895   -9.131636   -6.866824 C.3        1 UNL1     -0.0348
     7 C         -5.546024   -8.098238   -6.336851 C.2        1 UNL1     0.2441
     8 O         -6.321102   -8.21138   -7.27652 O.2        1 UNL1     -0.2702
     9 N         -5.887255   -8.557428   -5.052772 N.am        1 UNL1     -0.2772
     10 C         -6.226845   -7.500779   -4.23945 C.2        1 UNL1     0.1049
     11 C         -5.223017   -6.857578   -3.671257 C.2        1 UNL1     0.0801
     12 C         -7.646618   -5.443232   -4.149563 C.ar        1 UNL1     0.0753
     13 C         -6.469302   -4.743977   -3.732936 C.ar        1 UNL1     0.0305
     14 C         -5.250632   -5.455473   -3.353899 C.2        1 UNL1     0.0924
     15 N         -3.923211   -7.188636   -3.58504 N.pl3        1 UNL1     -0.3170
     16 C         -3.284035   -6.236679   -2.715853 C.3        1 UNL1     0.1275
     17 N         -4.112033   -4.982575   -2.855014 N.2        1 UNL1     -0.2557
     18 C         -3.488981   -6.722758   -1.284271 C.3        1 UNL1     0.0016
     19 C         -2.948567   -8.139226   -1.169556 C.3        1 UNL1     0.0026
     20 N         -1.535721   -8.130893   -1.522862 N.3        1 UNL1     -0.3018
     21 C         -1.232605   -7.620473   -2.861503 C.3        1 UNL1     0.0026
     22 C         -1.780182   -6.195103   -2.953017 C.3        1 UNL1     0.0016
     23 C         -0.856913   -9.359554   -1.161953 C.3        1 UNL1     0.0012
     24 C         -1.395136   -9.900427   0.172037 C.3        1 UNL1     -0.0339
     25 C         -1.542514   -11.430562   0.140033 C.3        1 UNL1     -0.0615
     26 C         -0.503012   -9.448556   1.31515 C.3        1 UNL1     -0.0615
     27 C         -8.839712   -4.766859   -4.392803 C.ar        1 UNL1     0.1347
     28 C         -8.987591   -3.402737   -4.215732 C.ar        1 UNL1     0.0342
     29 C         -7.80255   -2.728332   -3.852387 C.ar        1 UNL1     0.1435
     30 C         -6.591224   -3.387849   -3.640378 C.ar        1 UNL1     0.0774
     31 O         -7.807843   -1.415041   -3.535772 O.3        1 UNL1     -0.4436
     32 C         -6.596968   -1.216771   -2.790558 C.3        1 UNL1     0.3143
     33 C         -5.679928   -2.34511   -3.217293 C.2        1 UNL1     0.2504
     34 C         -10.288907   -2.649964   -4.212852 C.3        1 UNL1     -0.0327
     35 O         -6.004336   0.00159   -3.257071 O.2        1 UNL1     -0.4528
     36 C         -4.116008   1.440948   -0.29556 C.3        1 UNL1     0.0854
     37 C         -2.969946   0.787089   0.568463 C.3        1 UNL1     0.0236
     38 C         -1.620664   1.648479   0.664311 C.3        1 UNL1     0.1131
     39 C         -0.942059   2.194162   -0.656293 C.3        1 UNL1     0.0200
     40 C         -0.80153   1.216135   -2.000225 C.3        1 UNL1     0.0661
     41 C         -0.182869   -0.363263   -2.019455 C.3        1 UNL1     0.0091
     42 C         -0.619291   -1.799504   -3.07404 C.3        1 UNL1     0.0661
     43 C         -7.5793   -6.923647   -4.227645 C.2        1 UNL1     0.2131
     44 O         -8.558857   -7.645396   -4.179844 O.2        1 UNL1     -0.2851
     45 O         -9.92648   -5.515936   -4.839185 O.3        1 UNL1     -0.5056
     46 O         -4.469491   -2.36965   -3.226973 O.2        1 UNL1     -0.2836
     47 C         -0.776894   -1.746934   -5.736785 C.3        1 UNL1     -0.0566
     48 O         0.789067   -2.142883   -3.386665 O.3        1 UNL1     -0.3909
     49 C         -0.0955   -0.870492   -0.59728 C.3        1 UNL1     -0.0577
     50 O         -1.966987   1.28826   -2.79661 O.3        1 UNL1     -0.3910
     51 O         -3.760933   2.601515   -1.012803 O.3        1 UNL1     -0.3753
     52 C         -2.953789   -0.77036   0.430475 C.3        1 UNL1     -0.0564
     53 O         -0.693314   1.192843   1.752771 O.3        1 UNL1     -0.4608
     54 C         0.565702   1.68316   1.981674 C.2        1 UNL1     0.3042
     55 O         1.39448   2.034109   1.142745 O.2        1 UNL1     -0.2512
     56 C         0.894512   1.839264   3.439147 C.3        1 UNL1     0.0332
     57 C         -1.45185   3.694147   -0.876144 C.3        1 UNL1     -0.0567
     58 C         -6.963967   -1.40858   -1.300575 C.3        1 UNL1     0.0210
     59 C         -4.852927   3.283752   -1.627594 C.3        1 UNL1     0.0372
     60 C         -4.77522   0.522805   -1.263864 C.2        1 UNL1     -0.0208
     61 C         -5.108439   0.70855   -2.541835 C.2        1 UNL1     0.0882
     62 H         -2.337015   -2.156941   -4.328867 H        1 UNL1     0.0365
     63 H         -3.314652   -3.718873   -5.209106 H        1 UNL1     0.0576
     64 H         -1.340158   -5.918787   -6.080041 H        1 UNL1     0.0615
     65 H         -4.457255   -5.719786   -6.12429 H        1 UNL1     0.0622
     66 H         -4.890235   1.714926   0.434888 H        1 UNL1     0.0645
     67 H         -3.345434   0.851369   1.604531 H        1 UNL1     0.0362
     68 H         -2.007361   2.538935   1.183038 H        1 UNL1     0.0741
     69 H         0.086892   2.448373   -0.439397 H        1 UNL1     0.0359
     70 H         -0.041343   1.783646   -2.570407 H        1 UNL1     0.0600
     71 H         0.88171   -0.151175   -2.24002 H        1 UNL1     0.0348
     72 H         -0.986496   -0.909905   -3.606103 H        1 UNL1     0.0602
     73 H         -5.095413   -0.351513   -0.753676 H        1 UNL1     0.0628
     74 H         -4.771492   1.547785   -3.151251 H        1 UNL1     0.1022
     75 H         -2.396317   -9.111141   -7.096793 H        1 UNL1     0.0279
     76 H         -3.547366   -9.873083   -6.073157 H        1 UNL1     0.0279
     77 H         -3.902089   -9.514923   -7.811315 H        1 UNL1     0.0279
     78 H         -5.085848   -9.022821   -4.63178 H        1 UNL1     0.1553
     79 H         -3.575536   -8.120136   -3.720549 H        1 UNL1     0.1484
     80 H         -2.973252   -6.04049   -0.597758 H        1 UNL1     0.0317
     81 H         -4.549443   -6.699711   -1.011251 H        1 UNL1     0.0317
     82 H         -3.510639   -8.841906   -1.802193 H        1 UNL1     0.0428
     83 H         -3.106411   -8.466906   -0.141567 H        1 UNL1     0.0428
     84 H         -0.160865   -7.550075   -3.071809 H        1 UNL1     0.0428
     85 H         -1.615901   -8.284427   -3.648628 H        1 UNL1     0.0428
     86 H         -1.425985   -5.808496   -3.890603 H        1 UNL1     0.0317
     87 H         -1.2858   -5.555453   -2.211714 H        1 UNL1     0.0317
     88 H         -1.05528   -10.102261   -1.945746 H        1 UNL1     0.0429
     89 H         0.230692   -9.217213   -1.12161 H        1 UNL1     0.0429
     90 H         -2.379473   -9.458839   0.367726 H        1 UNL1     0.0308
     91 H         -0.568041   -11.922528   0.066044 H        1 UNL1     0.0233
     92 H         -2.057613   -11.787829   1.03482 H        1 UNL1     0.0233
     93 H         -2.138398   -11.774957   -0.713869 H        1 UNL1     0.0233
     94 H         0.49288   -9.893694   1.215719 H        1 UNL1     0.0233
     95 H         -0.389881   -8.36104   1.293399 H        1 UNL1     0.0233
     96 H         -0.917097   -9.741064   2.284139 H        1 UNL1     0.0233
     97 H         -10.143713   -1.585857   -4.052149 H        1 UNL1     0.0280
     98 H         -10.820995   -2.739663   -5.168935 H        1 UNL1     0.0280
     99 H         -10.936602   -3.035691   -3.408613 H        1 UNL1     0.0280
     100 H         -10.266347   -5.252328   -5.676217 H        1 UNL1     0.2922
     101 H         -0.457866   -0.782109   -5.343099 H        1 UNL1     0.0236
     102 H         -1.449672   -1.639525   -6.586971 H        1 UNL1     0.0236
     103 H         0.139022   -2.194044   -6.157955 H        1 UNL1     0.0236
     104 H         0.994905   -2.984295   -2.934308 H        1 UNL1     0.2098
     105 H         -0.975491   -1.411507   -0.258563 H        1 UNL1     0.0234
     106 H         0.807149   -1.437818   -0.370801 H        1 UNL1     0.0234
     107 H         0.0   0.0   0.0 H        1 UNL1     0.0234
     108 H         -2.26859   2.217072   -2.785977 H        1 UNL1     0.2098
     109 H         -3.027455   -1.274998   1.403936 H        1 UNL1     0.0234
     110 H         -3.732157   -1.151181   -0.239496 H        1 UNL1     0.0234
     111 H         -2.017594   -1.127139   -0.019185 H        1 UNL1     0.0234
     112 H         1.919843   2.204274   3.552322 H        1 UNL1     0.0342
     113 H         0.188712   2.492048   3.950579 H        1 UNL1     0.0342
     114 H         0.835292   0.849359   3.912165 H        1 UNL1     0.0342
     115 H         -2.514789   3.805709   -0.621383 H        1 UNL1     0.0234
     116 H         -0.896934   4.440029   -0.303626 H        1 UNL1     0.0234
     117 H         -1.452222   4.008026   -1.934171 H        1 UNL1     0.0234
     118 H         -6.109504   -1.200564   -0.633021 H        1 UNL1     0.0309
     119 H         -7.819318   -0.801635   -0.987212 H        1 UNL1     0.0309
     120 H         -7.224315   -2.445578   -1.061911 H        1 UNL1     0.0309
     121 H         -4.638813   3.355357   -2.693607 H        1 UNL1     0.0524
     122 H         -5.804023   2.736937   -1.516025 H        1 UNL1     0.0524
     123 H         -4.964589   4.276208   -1.200212 H        1 UNL1     0.0524
@<TRIPOS>BOND
     1     1     2    1
     2     1    42    1
     3     2     3    2
     4     3     4    1
     5     4     5    2
     6     5     7    1
     7     6    75    1
     8     6    76    1
     9     6    77    1
    10     7     9   am
    11     9    10    1
    12    10    11    2
    13    10    43    1
    14    11    14    1
    15    11    15    1
    16    12    13   ar
    17    12    27   ar
    18    12    43    1
    19    13    14    1
    20    13    30   ar
    21    14    17    2
    22    15    16    1
    23    16    17    1
    24    16    18    1
    25    16    22    1
    26    18    19    1
    27    19    20    1
    28    20    21    1
    29    21    22    1
    30    23    24    1
    31    23    88    1
    32    23    89    1
    33    24    25    1
    34    24    26    1
    35    24    90    1
    36    25    91    1
    37    25    92    1
    38    25    93    1
    39    26    94    1
    40    26    95    1
    41    26    96    1
    42    27    28   ar
    43    28    29   ar
    44    29    30   ar
    45    29    31    1
    46    30    33    1
    47    31    32    1
    48    32    33    1
    49    32    35    1
    50    34    97    1
    51    34    98    1
    52    34    99    1
    53    35    61    1
    54    36    37    1
    55    36    60    1
    56    37    38    1
    57    38    39    1
    58    39    40    1
    59    40    41    1
    60    41    42    1
    61    45   100    1
    62    47   101    1
    63    47   102    1
    64    47   103    1
    65    48   104    1
    66    49   105    1
    67    49   106    1
    68    49   107    1
    69    50   108    1
    70    51    59    1
    71    52   109    1
    72    52   110    1
    73    52   111    1
    74    53    54    1
    75    54    55    2
    76    54    56    1
    77    56   112    1
    78    56   113    1
    79    56   114    1
    80    57   115    1
    81    57   116    1
    82    57   117    1
    83    58   118    1
    84    58   119    1
    85    58   120    1
    86    59   121    1
    87    59   122    1
    88    59   123    1
    89    60    61    2
    90     1    47    1
    91     1    62    1
    92     2    63    1
    93     3    64    1
    94     4    65    1
    95     5     6    1
    96     7     8    2
    97     9    78    1
    98    15    79    1
    99    18    80    1
   100    18    81    1
   101    19    82    1
   102    19    83    1
   103    20    23    1
   104    21    84    1
   105    21    85    1
   106    22    86    1
   107    22    87    1
   108    27    45    1
   109    28    34    1
   110    32    58    1
   111    33    46    2
   112    36    51    1
   113    36    66    1
   114    37    52    1
   115    37    67    1
   116    38    53    1
   117    38    68    1
   118    42    48    1
   119    42    72    1
   120    43    44    2
   121    60    73    1
   122    61    74    1
   123    39    69    1
   124    39    57    1
   125    40    70    1
   126    40    50    1
   127    41    71    1
   128    41    49    1
