@<TRIPOS>MOLECULE
*****
 123 128 0 0 0
SMALL
GASTEIGER

@<TRIPOS>ATOM
     1 C         5.16654   1.751124   0.489594 C.3        1 UNL1     0.0009
     2 C         6.602827   2.557222   -0.361477 C.2        1 UNL1     -0.0787
     3 C         7.884676   2.459087   -1.02727 C.2        1 UNL1     -0.0649
     4 C         8.761567   3.694046   -1.783772 C.2        1 UNL1     -0.0542
     5 C         9.781383   3.986459   -2.72268 C.2        1 UNL1     0.0115
     6 C         10.909735   3.360873   -3.588005 C.3        1 UNL1     -0.0348
     7 C         9.876084   5.469346   -3.330188 C.2        1 UNL1     0.2441
     8 O         10.699688   6.291566   -2.953149 O.2        1 UNL1     -0.2702
     9 N         9.125662   5.675239   -4.500926 N.am        1 UNL1     -0.2772
     10 C         7.84283   6.061632   -4.187298 C.2        1 UNL1     0.1049
     11 C         6.997451   5.090086   -3.894627 C.2        1 UNL1     0.0801
     12 C         6.543959   7.668724   -2.777502 C.ar        1 UNL1     0.0753
     13 C         5.785385   6.540814   -2.32918 C.ar        1 UNL1     0.0305
     14 C         5.902756   5.234726   -2.973704 C.2        1 UNL1     0.0924
     15 N         7.12057   3.76105   -4.052839 N.pl3        1 UNL1     -0.3170
     16 C         5.850975   3.161598   -3.738131 C.3        1 UNL1     0.1275
     17 N         5.214306   4.117242   -2.758784 N.2        1 UNL1     -0.2557
     18 C         4.997975   3.219491   -5.001753 C.3        1 UNL1     0.0016
     19 C         5.753005   2.534936   -6.129983 C.3        1 UNL1     0.0026
     20 N         6.023721   1.157198   -5.743229 N.3        1 UNL1     -0.3018
     21 C         6.787267   0.99793   -4.503874 C.3        1 UNL1     0.0026
     22 C         6.008369   1.688899   -3.383261 C.3        1 UNL1     0.0016
     23 C         6.468432   0.33709   -6.852417 C.3        1 UNL1     0.0012
     24 C         5.312982   0.086508   -7.834202 C.3        1 UNL1     -0.0339
     25 C         5.348185   1.077882   -9.008933 C.3        1 UNL1     -0.0615
     26 C         5.342592   -1.353302   -8.316747 C.3        1 UNL1     -0.0615
     27 C         6.338863   8.9367   -2.238716 C.ar        1 UNL1     0.1347
     28 C         5.379799   9.20652   -1.278797 C.ar        1 UNL1     0.0342
     29 C         4.678725   8.072108   -0.81753 C.ar        1 UNL1     0.1435
     30 C         4.898613   6.789826   -1.322133 C.ar        1 UNL1     0.0774
     31 O         3.637779   8.185844   0.035993 O.3        1 UNL1     -0.4436
     32 C         2.916564   6.952649   -0.105261 C.3        1 UNL1     0.3143
     33 C         3.93019   5.959579   -0.63685 C.2        1 UNL1     0.2504
     34 C         4.932478   10.572747   -0.838993 C.3        1 UNL1     -0.0327
     35 O         2.556238   6.516697   1.211311 O.2        1 UNL1     -0.4528
     36 C         -0.686102   4.582987   0.816233 C.3        1 UNL1     0.0854
     37 C         -0.991017   3.321679   -0.080233 C.3        1 UNL1     0.0236
     38 C         -1.590997   2.060935   0.708623 C.3        1 UNL1     0.1131
     39 C         -0.864891   1.531163   2.010307 C.3        1 UNL1     0.0200
     40 C         0.796362   1.386289   2.05139 C.3        1 UNL1     0.0661
     41 C         1.7559   0.617039   0.882993 C.3        1 UNL1     0.0091
     42 C         3.463284   0.979874   0.318554 C.3        1 UNL1     0.0661
     43 C         7.493957   7.460629   -3.898421 C.2        1 UNL1     0.2131
     44 O         7.893413   8.358373   -4.617606 O.2        1 UNL1     -0.2851
     45 O         7.150678   9.97181   -2.697999 O.3        1 UNL1     -0.5056
     46 O         3.946659   4.75614   -0.505255 O.2        1 UNL1     -0.2836
     47 C         5.563229   1.32278   1.928045 C.3        1 UNL1     -0.0566
     48 O         3.912403   -0.431001   0.401251 O.3        1 UNL1     -0.3909
     49 C         0.921663   0.383281   -0.356725 C.3        1 UNL1     -0.0577
     50 O         1.396134   2.604651   2.443297 O.3        1 UNL1     -0.3910
     51 O         -0.80996   4.394215   2.207799 O.3        1 UNL1     -0.3753
     52 C         0.05337   3.160823   -1.232766 C.3        1 UNL1     -0.0564
     53 O         -2.193301   1.021104   -0.190436 O.3        1 UNL1     -0.4608
     54 C         -2.427169   -0.285505   0.150163 C.2        1 UNL1     0.3042
     55 O         -1.857735   -1.284715   -0.287059 O.2        1 UNL1     -0.2512
     56 C         -3.467001   -0.450817   1.221673 C.3        1 UNL1     0.0332
     57 C         -1.586033   2.200742   3.271177 C.3        1 UNL1     -0.0567
     58 C         1.841151   7.196583   -1.189471 C.3        1 UNL1     0.0210
     59 C         -1.123526   5.573607   2.947107 C.3        1 UNL1     0.0372
     60 C         0.642625   5.212424   0.585032 C.2        1 UNL1     -0.0208
     61 C         1.555493   5.648605   1.454033 C.2        1 UNL1     0.0882
     62 H         4.690251   2.735174   0.576241 H        1 UNL1     0.0365
     63 H         6.336187   3.610991   -0.256866 H        1 UNL1     0.0576
     64 H         8.342676   1.492262   -1.247706 H        1 UNL1     0.0615
     65 H         8.274173   4.609493   -1.437527 H        1 UNL1     0.0622
     66 H         -1.431075   5.329015   0.505584 H        1 UNL1     0.0645
     67 H         -1.856755   3.630291   -0.691637 H        1 UNL1     0.0362
     68 H         -2.538194   2.49769   1.060171 H        1 UNL1     0.0741
     69 H         -1.196002   0.520073   2.206445 H        1 UNL1     0.0359
     70 H         0.908495   0.72661   2.933041 H        1 UNL1     0.0600
     71 H         1.799925   -0.403815   1.310634 H        1 UNL1     0.0348
     72 H         3.357332   1.468715   1.297903 H        1 UNL1     0.0602
     73 H         0.760321   5.409003   -0.451671 H        1 UNL1     0.0628
     74 H         1.538156   5.438674   2.524017 H        1 UNL1     0.1022
     75 H         10.952581   2.255303   -3.436638 H        1 UNL1     0.0279
     76 H         10.797417   3.44547   -4.666567 H        1 UNL1     0.0279
     77 H         11.914848   3.663742   -3.259797 H        1 UNL1     0.0279
     78 H         9.063932   4.804903   -5.025123 H        1 UNL1     0.1553
     79 H         7.78593   3.332887   -4.670014 H        1 UNL1     0.1484
     80 H         4.036905   2.728324   -4.807161 H        1 UNL1     0.0317
     81 H         4.770937   4.25597   -5.273446 H        1 UNL1     0.0317
     82 H         6.683435   3.066422   -6.37845 H        1 UNL1     0.0428
     83 H         5.127724   2.589222   -7.021681 H        1 UNL1     0.0428
     84 H         6.908024   -0.044761   -4.193996 H        1 UNL1     0.0428
     85 H         7.817206   1.366285   -4.608073 H        1 UNL1     0.0428
     86 H         6.524999   1.439364   -2.475068 H        1 UNL1     0.0317
     87 H         5.029123   1.210975   -3.25772 H        1 UNL1     0.0317
     88 H         7.264223   0.878825   -7.380179 H        1 UNL1     0.0429
     89 H         6.901432   -0.608274   -6.500886 H        1 UNL1     0.0429
     90 H         4.359969   0.205585   -7.305242 H        1 UNL1     0.0308
     91 H         6.301309   1.027099   -9.543796 H        1 UNL1     0.0233
     92 H         4.533286   0.877109   -9.708389 H        1 UNL1     0.0233
     93 H         5.221697   2.117171   -8.68226 H        1 UNL1     0.0233
     94 H         4.648052   -1.485617   -9.153373 H        1 UNL1     0.0233
     95 H         6.346154   -1.609063   -8.668048 H        1 UNL1     0.0233
     96 H         5.060024   -2.047078   -7.520004 H        1 UNL1     0.0233
     97 H         4.132954   10.523306   -0.105817 H        1 UNL1     0.0280
     98 H         5.742648   11.13995   -0.362379 H        1 UNL1     0.0280
     99 H         4.567284   11.139911   -1.710804 H        1 UNL1     0.0280
     100 H         6.683332   10.72254   -3.01989 H        1 UNL1     0.2922
     101 H         4.697498   0.90058   2.437861 H        1 UNL1     0.0236
     102 H         6.024867   2.125324   2.502325 H        1 UNL1     0.0236
     103 H         6.310613   0.511849   1.927396 H        1 UNL1     0.0236
     104 H         4.331776   -0.556311   1.274975 H        1 UNL1     0.2098
     105 H         0.7086   1.281629   -0.930646 H        1 UNL1     0.0234
     106 H         1.291275   -0.405058   -1.012344 H        1 UNL1     0.0234
     107 H         0.0   -0.0   0.0 H        1 UNL1     0.0234
     108 H         1.202642   3.260679   1.746191 H        1 UNL1     0.2098
     109 H         1.079739   3.0604   -0.853039 H        1 UNL1     0.0234
     110 H         -0.172169   2.325553   -1.904479 H        1 UNL1     0.0234
     111 H         0.065354   4.03795   -1.89341 H        1 UNL1     0.0234
     112 H         -3.589955   -1.511576   1.460457 H        1 UNL1     0.0342
     113 H         -3.230201   0.125774   2.114596 H        1 UNL1     0.0342
     114 H         -4.424608   -0.080465   0.830529 H        1 UNL1     0.0342
     115 H         -2.655556   1.95208   3.309588 H        1 UNL1     0.0234
     116 H         -1.149348   1.921825   4.232197 H        1 UNL1     0.0234
     117 H         -1.625063   3.302549   3.22178 H        1 UNL1     0.0234
     118 H         0.939317   7.68202   -0.777096 H        1 UNL1     0.0309
     119 H         2.20976   7.785414   -2.035407 H        1 UNL1     0.0309
     120 H         1.453993   6.264212   -1.614794 H        1 UNL1     0.0309
     121 H         -0.302766   6.276994   2.809425 H        1 UNL1     0.0524
     122 H         -2.043556   6.062039   2.585146 H        1 UNL1     0.0524
     123 H         -1.241275   5.33656   4.000691 H        1 UNL1     0.0524
@<TRIPOS>BOND
     1     1     2    1
     2     1    42    1
     3     2     3    2
     4     3     4    1
     5     4     5    2
     6     5     7    1
     7     6    75    1
     8     6    76    1
     9     6    77    1
    10     7     9   am
    11     9    10    1
    12    10    11    2
    13    10    43    1
    14    11    14    1
    15    11    15    1
    16    12    13   ar
    17    12    27   ar
    18    12    43    1
    19    13    14    1
    20    13    30   ar
    21    14    17    2
    22    15    16    1
    23    16    17    1
    24    16    18    1
    25    16    22    1
    26    18    19    1
    27    19    20    1
    28    20    21    1
    29    21    22    1
    30    23    24    1
    31    23    88    1
    32    23    89    1
    33    24    25    1
    34    24    26    1
    35    24    90    1
    36    25    91    1
    37    25    92    1
    38    25    93    1
    39    26    94    1
    40    26    95    1
    41    26    96    1
    42    27    28   ar
    43    28    29   ar
    44    29    30   ar
    45    29    31    1
    46    30    33    1
    47    31    32    1
    48    32    33    1
    49    32    35    1
    50    34    97    1
    51    34    98    1
    52    34    99    1
    53    35    61    1
    54    36    37    1
    55    36    60    1
    56    37    38    1
    57    38    39    1
    58    39    40    1
    59    40    41    1
    60    41    42    1
    61    45   100    1
    62    47   101    1
    63    47   102    1
    64    47   103    1
    65    48   104    1
    66    49   105    1
    67    49   106    1
    68    49   107    1
    69    50   108    1
    70    51    59    1
    71    52   109    1
    72    52   110    1
    73    52   111    1
    74    53    54    1
    75    54    55    2
    76    54    56    1
    77    56   112    1
    78    56   113    1
    79    56   114    1
    80    57   115    1
    81    57   116    1
    82    57   117    1
    83    58   118    1
    84    58   119    1
    85    58   120    1
    86    59   121    1
    87    59   122    1
    88    59   123    1
    89    60    61    2
    90     1    47    1
    91     1    62    1
    92     2    63    1
    93     3    64    1
    94     4    65    1
    95     5     6    1
    96     7     8    2
    97     9    78    1
    98    15    79    1
    99    18    80    1
   100    18    81    1
   101    19    82    1
   102    19    83    1
   103    20    23    1
   104    21    84    1
   105    21    85    1
   106    22    86    1
   107    22    87    1
   108    27    45    1
   109    28    34    1
   110    32    58    1
   111    33    46    2
   112    36    51    1
   113    36    66    1
   114    37    52    1
   115    37    67    1
   116    38    53    1
   117    38    68    1
   118    42    48    1
   119    42    72    1
   120    43    44    2
   121    60    73    1
   122    61    74    1
   123    39    69    1
   124    39    57    1
   125    40    70    1
   126    40    50    1
   127    41    71    1
   128    41    49    1
