@<TRIPOS>MOLECULE
*****
 123 128 0 0 0
SMALL
GASTEIGER

@<TRIPOS>ATOM
     1 C         0.808196   -2.749681   -4.29892 C.3        1 UNL1     0.0009
     2 C         -0.183734   -3.577469   -5.628536 C.2        1 UNL1     -0.0787
     3 C         -0.607236   -4.779349   -6.315688 C.2        1 UNL1     -0.0649
     4 C         -1.766075   -4.923648   -7.541506 C.2        1 UNL1     -0.0542
     5 C         -2.635418   -5.81424   -8.218386 C.2        1 UNL1     0.0115
     6 C         -3.004232   -7.311806   -8.404382 C.3        1 UNL1     -0.0348
     7 C         -3.84975   -5.211349   -9.077984 C.2        1 UNL1     0.2441
     8 O         -3.8232   -5.125581   -10.298011 O.2        1 UNL1     -0.2702
     9 N         -5.045775   -5.030818   -8.361685 N.am        1 UNL1     -0.2772
     10 C         -5.06637   -3.790506   -7.766265 C.2        1 UNL1     0.1049
     11 C         -4.435523   -3.689204   -6.610414 C.2        1 UNL1     0.0801
     12 C         -4.688601   -1.361452   -8.229215 C.ar        1 UNL1     0.0753
     13 C         -3.840112   -1.354137   -7.076557 C.ar        1 UNL1     0.0305
     14 C         -3.791586   -2.487   -6.154972 C.2        1 UNL1     0.0924
     15 N         -3.947291   -4.648746   -5.80578 N.pl3        1 UNL1     -0.3170
     16 C         -3.508531   -4.020001   -4.588231 C.3        1 UNL1     0.1275
     17 N         -3.147167   -2.613261   -4.998378 N.2        1 UNL1     -0.2557
     18 C         -4.727187   -3.896101   -3.678711 C.3        1 UNL1     0.0016
     19 C         -5.334597   -5.276873   -3.488679 C.3        1 UNL1     0.0026
     20 N         -4.330008   -6.153147   -2.902188 N.3        1 UNL1     -0.3018
     21 C         -3.093936   -6.287182   -3.675835 C.3        1 UNL1     0.0026
     22 C         -2.498403   -4.889099   -3.850764 C.3        1 UNL1     0.0016
     23 C         -4.886265   -7.3963   -2.406412 C.3        1 UNL1     0.0012
     24 C         -3.877298   -8.543116   -2.57539 C.3        1 UNL1     -0.0339
     25 C         -3.172974   -8.8725   -1.248931 C.3        1 UNL1     -0.0615
     26 C         -4.568439   -9.763021   -3.159288 C.3        1 UNL1     -0.0615
     27 C         -4.820682   -0.233271   -9.035366 C.ar        1 UNL1     0.1347
     28 C         -4.187983   0.967721   -8.768229 C.ar        1 UNL1     0.0342
     29 C         -3.319793   0.936679   -7.656273 C.ar        1 UNL1     0.1435
     30 C         -3.149598   -0.196959   -6.860585 C.ar        1 UNL1     0.0774
     31 O         -2.715983   2.056573   -7.202119 O.3        1 UNL1     -0.4436
     32 C         -2.33477   1.741932   -5.854324 C.3        1 UNL1     0.3143
     33 C         -2.249607   0.229665   -5.809503 C.2        1 UNL1     0.2504
     34 C         -4.475089   2.283335   -9.436683 C.3        1 UNL1     -0.0327
     35 O         -1.005519   2.240577   -5.660169 O.2        1 UNL1     -0.4528
     36 C         -0.754562   3.128378   -1.978197 C.3        1 UNL1     0.0854
     37 C         -0.987581   2.213685   -0.714646 C.3        1 UNL1     0.0236
     38 C         0.237147   2.164849   0.319473 C.3        1 UNL1     0.1131
     39 C         1.696529   1.854448   -0.206004 C.3        1 UNL1     0.0200
     40 C         1.952429   0.641596   -1.322222 C.3        1 UNL1     0.0661
     41 C         1.367677   -0.947163   -1.214883 C.3        1 UNL1     0.0091
     42 C         0.858777   -2.119382   -2.531062 C.3        1 UNL1     0.0661
     43 C         -5.49263   -2.581805   -8.487165 C.2        1 UNL1     0.2131
     44 O         -6.506032   -2.589903   -9.162212 O.2        1 UNL1     -0.2851
     45 O         -5.630906   -0.338199   -10.164066 O.3        1 UNL1     -0.5056
     46 O         -1.574037   -0.465853   -5.084442 O.2        1 UNL1     -0.2836
     47 C         2.310816   -2.718115   -4.68766 C.3        1 UNL1     -0.0566
     48 O         1.627179   -3.257999   -1.972288 O.3        1 UNL1     -0.3909
     49 C         0.307062   -1.005103   -0.138207 C.3        1 UNL1     -0.0577
     50 O         1.787819   1.129133   -2.638632 O.3        1 UNL1     -0.3910
     51 O         0.547852   3.645359   -2.132729 O.3        1 UNL1     -0.3753
     52 C         -1.832709   0.944991   -1.062674 C.3        1 UNL1     -0.0564
     53 O         -0.12817   1.588734   1.656246 O.3        1 UNL1     -0.4608
     54 C         0.682714   0.801445   2.431212 C.2        1 UNL1     0.3042
     55 O         0.354565   0.115795   3.398704 O.2        1 UNL1     -0.2512
     56 C         2.110797   0.767866   1.966277 C.3        1 UNL1     0.0332
     57 C         2.430877   3.254974   -0.44566 C.3        1 UNL1     -0.0567
     58 C         -3.502025   2.202864   -4.950672 C.3        1 UNL1     0.0210
     59 C         1.588545   2.808017   -1.63105 C.3        1 UNL1     0.0372
     60 C         -1.128213   2.510228   -3.279518 C.2        1 UNL1     -0.0208
     61 C         -0.480927   2.492154   -4.445467 C.2        1 UNL1     0.0882
     62 H         0.384467   -1.786829   -4.608888 H        1 UNL1     0.0365
     63 H         -0.604718   -2.708831   -6.139134 H        1 UNL1     0.0576
     64 H         -0.311068   -5.771743   -5.968488 H        1 UNL1     0.0615
     65 H         -1.930252   -3.893008   -7.867557 H        1 UNL1     0.0622
     66 H         -1.44267   3.973828   -1.837598 H        1 UNL1     0.0645
     67 H         -1.748946   2.756223   -0.127675 H        1 UNL1     0.0362
     68 H         0.257425   3.22047   0.630561 H        1 UNL1     0.0741
     69 H         2.307862   1.54056   0.629551 H        1 UNL1     0.0359
     70 H         3.045559   0.507999   -1.211408 H        1 UNL1     0.0600
     71 H         2.221977   -1.433479   -0.704369 H        1 UNL1     0.0348
     72 H         1.485347   -1.362445   -3.024795 H        1 UNL1     0.0602
     73 H         -2.12211   2.141844   -3.218594 H        1 UNL1     0.0628
     74 H         0.557702   2.79657   -4.57895 H        1 UNL1     0.1022
     75 H         -4.096734   -7.470315   -8.236015 H        1 UNL1     0.0279
     76 H         -2.857684   -7.727654   -9.398697 H        1 UNL1     0.0279
     77 H         -2.569237   -7.956656   -7.62679 H        1 UNL1     0.0279
     78 H         -5.109742   -5.726909   -7.621791 H        1 UNL1     0.1553
     79 H         -4.231497   -5.610127   -5.849427 H        1 UNL1     0.1484
     80 H         -4.416166   -3.46018   -2.721629 H        1 UNL1     0.0317
     81 H         -5.468115   -3.21325   -4.108119 H        1 UNL1     0.0317
     82 H         -5.714605   -5.688295   -4.435378 H        1 UNL1     0.0428
     83 H         -6.202937   -5.165199   -2.83863 H        1 UNL1     0.0428
     84 H         -2.326236   -6.885852   -3.175792 H        1 UNL1     0.0428
     85 H         -3.262027   -6.80993   -4.627569 H        1 UNL1     0.0428
     86 H         -1.534955   -5.039104   -4.301602 H        1 UNL1     0.0317
     87 H         -2.256039   -4.459764   -2.870954 H        1 UNL1     0.0317
     88 H         -5.098855   -7.272653   -1.336453 H        1 UNL1     0.0429
     89 H         -5.838843   -7.631225   -2.898529 H        1 UNL1     0.0429
     90 H         -3.118427   -8.24856   -3.309941 H        1 UNL1     0.0308
     91 H         -2.954914   -7.964795   -0.678296 H        1 UNL1     0.0233
     92 H         -3.787875   -9.53967   -0.640334 H        1 UNL1     0.0233
     93 H         -2.218013   -9.390117   -1.400446 H        1 UNL1     0.0233
     94 H         -5.617433   -9.534791   -3.376909 H        1 UNL1     0.0233
     95 H         -4.085211   -10.05346   -4.096357 H        1 UNL1     0.0233
     96 H         -4.535239   -10.60962   -2.467814 H        1 UNL1     0.0233
     97 H         -3.573058   2.868526   -9.58874 H        1 UNL1     0.0280
     98 H         -4.920374   2.153474   -10.431728 H        1 UNL1     0.0280
     99 H         -5.167283   2.871366   -8.812037 H        1 UNL1     0.0280
     100 H         -5.504315   -1.124654   -10.665152 H        1 UNL1     0.2922
     101 H         2.778627   -1.824475   -4.275085 H        1 UNL1     0.0236
     102 H         2.47806   -2.809173   -5.760377 H        1 UNL1     0.0236
     103 H         2.871188   -3.557758   -4.243615 H        1 UNL1     0.0236
     104 H         2.082859   -2.940112   -1.168376 H        1 UNL1     0.2098
     105 H         -0.57136   -1.587802   -0.404005 H        1 UNL1     0.0234
     106 H         0.672385   -1.299753   0.845483 H        1 UNL1     0.0234
     107 H         0.0   0.0   0.0 H        1 UNL1     0.0234
     108 H         2.574744   1.667904   -2.848971 H        1 UNL1     0.2098
     109 H         -1.469909   0.047797   -0.541971 H        1 UNL1     0.0234
     110 H         -2.902857   1.07402   -0.868051 H        1 UNL1     0.0234
     111 H         -1.78368   0.707317   -2.133679 H        1 UNL1     0.0234
     112 H         2.543123   1.771676   2.019239 H        1 UNL1     0.0342
     113 H         2.708832   0.05458   2.531449 H        1 UNL1     0.0342
     114 H         2.121731   0.451556   0.914139 H        1 UNL1     0.0342
     115 H         2.802497   3.350347   -1.475219 H        1 UNL1     0.0234
     116 H         1.804537   4.125453   -0.240685 H        1 UNL1     0.0234
     117 H         3.36621   3.365369   0.129585 H        1 UNL1     0.0234
     118 H         -4.108816   1.35324   -4.591578 H        1 UNL1     0.0309
     119 H         -3.172103   2.79571   -4.091668 H        1 UNL1     0.0309
     120 H         -4.228576   2.823538   -5.486389 H        1 UNL1     0.0309
     121 H         2.406441   3.453663   -1.31239 H        1 UNL1     0.0524
     122 H         1.267539   2.221572   -0.75408 H        1 UNL1     0.0524
     123 H         1.928882   2.126531   -2.405545 H        1 UNL1     0.0524
@<TRIPOS>BOND
     1     1     2    1
     2     1    42    1
     3     2     3    2
     4     3     4    1
     5     4     5    2
     6     5     7    1
     7     6    75    1
     8     6    76    1
     9     6    77    1
    10     7     9   am
    11     9    10    1
    12    10    11    2
    13    10    43    1
    14    11    14    1
    15    11    15    1
    16    12    13   ar
    17    12    27   ar
    18    12    43    1
    19    13    14    1
    20    13    30   ar
    21    14    17    2
    22    15    16    1
    23    16    17    1
    24    16    18    1
    25    16    22    1
    26    18    19    1
    27    19    20    1
    28    20    21    1
    29    21    22    1
    30    23    24    1
    31    23    88    1
    32    23    89    1
    33    24    25    1
    34    24    26    1
    35    24    90    1
    36    25    91    1
    37    25    92    1
    38    25    93    1
    39    26    94    1
    40    26    95    1
    41    26    96    1
    42    27    28   ar
    43    28    29   ar
    44    29    30   ar
    45    29    31    1
    46    30    33    1
    47    31    32    1
    48    32    33    1
    49    32    35    1
    50    34    97    1
    51    34    98    1
    52    34    99    1
    53    35    61    1
    54    36    37    1
    55    36    60    1
    56    37    38    1
    57    38    39    1
    58    39    40    1
    59    40    41    1
    60    41    42    1
    61    45   100    1
    62    47   101    1
    63    47   102    1
    64    47   103    1
    65    48   104    1
    66    49   105    1
    67    49   106    1
    68    49   107    1
    69    50   108    1
    70    51    59    1
    71    52   109    1
    72    52   110    1
    73    52   111    1
    74    53    54    1
    75    54    55    2
    76    54    56    1
    77    56   112    1
    78    56   113    1
    79    56   114    1
    80    57   115    1
    81    57   116    1
    82    57   117    1
    83    58   118    1
    84    58   119    1
    85    58   120    1
    86    59   121    1
    87    59   122    1
    88    59   123    1
    89    60    61    2
    90     1    47    1
    91     1    62    1
    92     2    63    1
    93     3    64    1
    94     4    65    1
    95     5     6    1
    96     7     8    2
    97     9    78    1
    98    15    79    1
    99    18    80    1
   100    18    81    1
   101    19    82    1
   102    19    83    1
   103    20    23    1
   104    21    84    1
   105    21    85    1
   106    22    86    1
   107    22    87    1
   108    27    45    1
   109    28    34    1
   110    32    58    1
   111    33    46    2
   112    36    51    1
   113    36    66    1
   114    37    52    1
   115    37    67    1
   116    38    53    1
   117    38    68    1
   118    42    48    1
   119    42    72    1
   120    43    44    2
   121    60    73    1
   122    61    74    1
   123    39    69    1
   124    39    57    1
   125    40    70    1
   126    40    50    1
   127    41    71    1
   128    41    49    1
