@<TRIPOS>MOLECULE
*****
 123 128 0 0 0
SMALL
GASTEIGER

@<TRIPOS>ATOM
     1 C         0.60978   4.345981   2.89434 C.3        1 UNL1     0.0009
     2 C         -0.274277   5.637193   3.888448 C.2        1 UNL1     -0.0787
     3 C         -0.986439   6.895478   3.963219 C.2        1 UNL1     -0.0649
     4 C         -1.747573   7.581902   5.310756 C.2        1 UNL1     -0.0542
     5 C         -2.715396   8.521283   5.744299 C.2        1 UNL1     0.0115
     6 C         -3.632422   9.68601   5.279759 C.3        1 UNL1     -0.0348
     7 C         -3.295152   8.406733   7.236864 C.2        1 UNL1     0.2441
     8 O         -2.930322   9.134352   8.150098 O.2        1 UNL1     -0.2702
     9 N         -4.434395   7.593246   7.365378 N.am        1 UNL1     -0.2772
     10 C         -4.068131   6.284728   7.582061 C.2        1 UNL1     0.1049
     11 C         -3.766119   5.579231   6.507219 C.2        1 UNL1     0.0801
     12 C         -2.580879   4.848325   8.989955 C.ar        1 UNL1     0.0753
     13 C         -2.129609   4.254287   7.768447 C.ar        1 UNL1     0.0305
     14 C         -2.804634   4.510195   6.498052 C.2        1 UNL1     0.0924
     15 N         -3.955908   5.86187   5.20698 N.pl3        1 UNL1     -0.3170
     16 C         -3.60935   4.690009   4.447445 C.3        1 UNL1     0.1275
     17 N         -2.588814   3.975658   5.299461 N.2        1 UNL1     -0.2557
     18 C         -4.840858   3.789895   4.417729 C.3        1 UNL1     0.0016
     19 C         -6.008712   4.582074   3.851902 C.3        1 UNL1     0.0026
     20 N         -5.660158   5.037491   2.513196 N.3        1 UNL1     -0.3018
     21 C         -4.451854   5.860711   2.431482 C.3        1 UNL1     0.0026
     22 C         -3.290642   5.043782   3.000787 C.3        1 UNL1     0.0016
     23 C         -6.800911   5.539704   1.773528 C.3        1 UNL1     0.0012
     24 C         -7.746581   4.3889   1.395222 C.3        1 UNL1     -0.0339
     25 C         -8.951295   4.314772   2.347706 C.3        1 UNL1     -0.0615
     26 C         -8.185887   4.530122   -0.051791 C.3        1 UNL1     -0.0615
     27 C         -2.009218   4.506271   10.213196 C.ar        1 UNL1     0.1347
     28 C         -1.010939   3.557477   10.344651 C.ar        1 UNL1     0.0342
     29 C         -0.548882   3.021743   9.123726 C.ar        1 UNL1     0.1435
     30 C         -1.087202   3.38153   7.887609 C.ar        1 UNL1     0.0774
     31 O         0.342739   2.007349   9.091756 O.3        1 UNL1     -0.4436
     32 C         0.201441   1.441525   7.779982 C.3        1 UNL1     0.3143
     33 C         -0.38568   2.551005   6.931126 C.2        1 UNL1     0.2504
     34 C         -0.527669   2.959273   11.636433 C.3        1 UNL1     -0.0327
     35 O         1.52056   1.188058   7.28105 O.2        1 UNL1     -0.4528
     36 C         1.19951   -1.798987   4.961012 C.3        1 UNL1     0.0854
     37 C         0.288465   -1.976758   3.685897 C.3        1 UNL1     0.0236
     38 C         1.071695   -2.38421   2.347137 C.3        1 UNL1     0.1131
     39 C         2.335951   -1.549369   1.892201 C.3        1 UNL1     0.0200
     40 C         2.31583   0.117313   1.957045 C.3        1 UNL1     0.0661
     41 C         1.098934   1.121354   1.333607 C.3        1 UNL1     0.0091
     42 C         0.482639   2.747564   1.91758 C.3        1 UNL1     0.0661
     43 C         -3.738435   5.774388   8.921168 C.2        1 UNL1     0.2131
     44 O         -4.452512   6.031107   9.873496 O.2        1 UNL1     -0.2851
     45 O         -2.475218   5.164308   11.349536 O.3        1 UNL1     -0.5056
     46 O         -0.279578   2.722996   5.737386 O.2        1 UNL1     -0.2836
     47 C         2.024319   4.846632   2.496332 C.3        1 UNL1     -0.0566
     48 O         0.520455   3.372652   0.573351 O.3        1 UNL1     -0.3909
     49 C         -0.11536   0.277269   1.016579 C.3        1 UNL1     -0.0577
     50 O         2.71152   0.573952   3.234791 O.3        1 UNL1     -0.3910
     51 O         2.590373   -1.846179   4.735836 O.3        1 UNL1     -0.3753
     52 C         -0.903011   -0.964215   3.676362 C.3        1 UNL1     -0.0564
     53 O         0.17304   -2.884659   1.254299 O.3        1 UNL1     -0.4608
     54 C         0.333797   -2.635969   -0.083699 C.2        1 UNL1     0.3042
     55 O         -0.290217   -1.831029   -0.774001 O.2        1 UNL1     -0.2512
     56 C         1.447834   -3.423749   -0.712219 C.3        1 UNL1     0.0332
     57 C         3.63484   -2.301122   2.445312 C.3        1 UNL1     -0.0567
     58 C         -0.839179   0.304301   7.903913 C.3        1 UNL1     0.0210
     59 C         3.233979   -3.029397   5.206613 C.3        1 UNL1     0.0372
     60 C         0.934937   -0.56914   5.756396 C.2        1 UNL1     -0.0208
     61 C         1.780238   0.313704   6.290061 C.2        1 UNL1     0.0882
     62 H         0.733322   3.753746   3.809056 H        1 UNL1     0.0365
     63 H         -0.138692   5.244745   4.898434 H        1 UNL1     0.0576
     64 H         -1.242664   7.462428   3.065431 H        1 UNL1     0.0615
     65 H         -1.365672   6.996943   6.151861 H        1 UNL1     0.0622
     66 H         0.930588   -2.64262   5.612174 H        1 UNL1     0.0645
     67 H         -0.28575   -2.896556   3.8928 H        1 UNL1     0.0362
     68 H         1.465131   -3.364864   2.655434 H        1 UNL1     0.0741
     69 H         2.522682   -1.743661   0.844446 H        1 UNL1     0.0359
     70 H         3.179227   0.344038   1.302675 H        1 UNL1     0.0600
     71 H         1.503636   1.308847   0.319694 H        1 UNL1     0.0348
     72 H         1.474967   2.617852   2.373405 H        1 UNL1     0.0602
     73 H         -0.10098   -0.515785   5.982844 H        1 UNL1     0.0628
     74 H         2.845618   0.362763   6.062473 H        1 UNL1     0.1022
     75 H         -3.036595   10.464973   4.74568 H        1 UNL1     0.0279
     76 H         -4.400351   9.43764   4.550604 H        1 UNL1     0.0279
     77 H         -4.042841   10.265166   6.119899 H        1 UNL1     0.0279
     78 H         -4.973938   7.621497   6.502723 H        1 UNL1     0.1553
     79 H         -4.604704   6.552112   4.875976 H        1 UNL1     0.1484
     80 H         -4.622891   2.905863   3.806383 H        1 UNL1     0.0317
     81 H         -5.08301   3.424825   5.42159 H        1 UNL1     0.0317
     82 H         -6.278606   5.428666   4.500247 H        1 UNL1     0.0428
     83 H         -6.876654   3.922063   3.841317 H        1 UNL1     0.0428
     84 H         -4.167955   6.122616   1.407461 H        1 UNL1     0.0428
     85 H         -4.584447   6.831781   2.928231 H        1 UNL1     0.0428
     86 H         -2.406438   5.621146   2.803755 H        1 UNL1     0.0317
     87 H         -3.14076   4.137492   2.401396 H        1 UNL1     0.0317
     88 H         -7.344943   6.241102   2.419565 H        1 UNL1     0.0429
     89 H         -6.484324   6.100536   0.8847 H        1 UNL1     0.0429
     90 H         -7.198698   3.440768   1.450736 H        1 UNL1     0.0308
     91 H         -9.655385   3.536423   2.038622 H        1 UNL1     0.0233
     92 H         -8.62328   4.115958   3.370686 H        1 UNL1     0.0233
     93 H         -9.513321   5.25585   2.38424 H        1 UNL1     0.0233
     94 H         -9.230052   4.21791   -0.161698 H        1 UNL1     0.0233
     95 H         -8.111902   5.575474   -0.364405 H        1 UNL1     0.0233
     96 H         -7.570388   3.918283   -0.71721 H        1 UNL1     0.0233
     97 H         -0.641254   1.879433   11.65306 H        1 UNL1     0.0280
     98 H         0.539434   3.151891   11.80803 H        1 UNL1     0.0280
     99 H         -1.103945   3.38033   12.4765 H        1 UNL1     0.0280
     100 H         -2.515627   6.101188   11.270508 H        1 UNL1     0.2922
     101 H         2.775512   4.356059   3.114962 H        1 UNL1     0.0236
     102 H         2.118055   5.931763   2.522535 H        1 UNL1     0.0236
     103 H         2.286969   4.566768   1.462463 H        1 UNL1     0.0236
     104 H         -0.400121   3.577473   0.317309 H        1 UNL1     0.2098
     105 H         -0.194085   -0.634547   1.603268 H        1 UNL1     0.0234
     106 H         -1.061705   0.817811   1.029694 H        1 UNL1     0.0234
     107 H         0.0   0.0   0.0 H        1 UNL1     0.0234
     108 H         2.79067   1.546013   3.183784 H        1 UNL1     0.2098
     109 H         -1.563995   -1.091451   4.545052 H        1 UNL1     0.0234
     110 H         -0.579664   0.080308   3.611844 H        1 UNL1     0.0234
     111 H         -1.542422   -1.09993   2.793934 H        1 UNL1     0.0234
     112 H         1.535861   -3.163823   -1.771481 H        1 UNL1     0.0342
     113 H         2.394751   -3.278804   -0.194355 H        1 UNL1     0.0342
     114 H         1.192801   -4.490476   -0.647277 H        1 UNL1     0.0342
     115 H         3.525907   -2.580557   3.502307 H        1 UNL1     0.0234
     116 H         3.893763   -3.205737   1.891525 H        1 UNL1     0.0234
     117 H         4.531118   -1.658498   2.486064 H        1 UNL1     0.0234
     118 H         -0.380381   -0.692561   7.782353 H        1 UNL1     0.0309
     119 H         -1.394039   0.330585   8.847121 H        1 UNL1     0.0309
     120 H         -1.59177   0.334655   7.108432 H        1 UNL1     0.0309
     121 H         4.275065   -2.779879   5.409683 H        1 UNL1     0.0524
     122 H         2.792115   -3.400333   6.1464 H        1 UNL1     0.0524
     123 H         3.175773   -3.81282   4.456311 H        1 UNL1     0.0524
@<TRIPOS>BOND
     1     1     2    1
     2     1    42    1
     3     2     3    2
     4     3     4    1
     5     4     5    2
     6     5     7    1
     7     6    75    1
     8     6    76    1
     9     6    77    1
    10     7     9   am
    11     9    10    1
    12    10    11    2
    13    10    43    1
    14    11    14    1
    15    11    15    1
    16    12    13   ar
    17    12    27   ar
    18    12    43    1
    19    13    14    1
    20    13    30   ar
    21    14    17    2
    22    15    16    1
    23    16    17    1
    24    16    18    1
    25    16    22    1
    26    18    19    1
    27    19    20    1
    28    20    21    1
    29    21    22    1
    30    23    24    1
    31    23    88    1
    32    23    89    1
    33    24    25    1
    34    24    26    1
    35    24    90    1
    36    25    91    1
    37    25    92    1
    38    25    93    1
    39    26    94    1
    40    26    95    1
    41    26    96    1
    42    27    28   ar
    43    28    29   ar
    44    29    30   ar
    45    29    31    1
    46    30    33    1
    47    31    32    1
    48    32    33    1
    49    32    35    1
    50    34    97    1
    51    34    98    1
    52    34    99    1
    53    35    61    1
    54    36    37    1
    55    36    60    1
    56    37    38    1
    57    38    39    1
    58    39    40    1
    59    40    41    1
    60    41    42    1
    61    45   100    1
    62    47   101    1
    63    47   102    1
    64    47   103    1
    65    48   104    1
    66    49   105    1
    67    49   106    1
    68    49   107    1
    69    50   108    1
    70    51    59    1
    71    52   109    1
    72    52   110    1
    73    52   111    1
    74    53    54    1
    75    54    55    2
    76    54    56    1
    77    56   112    1
    78    56   113    1
    79    56   114    1
    80    57   115    1
    81    57   116    1
    82    57   117    1
    83    58   118    1
    84    58   119    1
    85    58   120    1
    86    59   121    1
    87    59   122    1
    88    59   123    1
    89    60    61    2
    90     1    47    1
    91     1    62    1
    92     2    63    1
    93     3    64    1
    94     4    65    1
    95     5     6    1
    96     7     8    2
    97     9    78    1
    98    15    79    1
    99    18    80    1
   100    18    81    1
   101    19    82    1
   102    19    83    1
   103    20    23    1
   104    21    84    1
   105    21    85    1
   106    22    86    1
   107    22    87    1
   108    27    45    1
   109    28    34    1
   110    32    58    1
   111    33    46    2
   112    36    51    1
   113    36    66    1
   114    37    52    1
   115    37    67    1
   116    38    53    1
   117    38    68    1
   118    42    48    1
   119    42    72    1
   120    43    44    2
   121    60    73    1
   122    61    74    1
   123    39    69    1
   124    39    57    1
   125    40    70    1
   126    40    50    1
   127    41    71    1
   128    41    49    1
