@<TRIPOS>MOLECULE
*****
 123 128 0 0 0
SMALL
GASTEIGER

@<TRIPOS>ATOM
     1 C         5.166301   1.760504   0.457413 C.3        1 UNL1     0.0009
     2 C         6.595755   2.569308   -0.402549 C.2        1 UNL1     -0.0787
     3 C         7.873584   2.473581   -1.07637 C.2        1 UNL1     -0.0649
     4 C         8.743464   3.710215   -1.838213 C.2        1 UNL1     -0.0542
     5 C         9.756842   4.004583   -2.783458 C.2        1 UNL1     0.0115
     6 C         10.880891   3.381146   -3.655905 C.3        1 UNL1     -0.0348
     7 C         9.845029   5.487702   -3.391382 C.2        1 UNL1     0.2441
     8 O         10.669476   6.311386   -3.019417 O.2        1 UNL1     -0.2702
     9 N         9.086913   5.692342   -4.557372 N.am        1 UNL1     -0.2772
     10 C         7.805367   6.076361   -4.23567 C.2        1 UNL1     0.1049
     11 C         6.963613   5.103245   -3.937818 C.2        1 UNL1     0.0801
     12 C         6.512423   7.680937   -2.817585 C.ar        1 UNL1     0.0753
     13 C         5.758732   6.551599   -2.364645 C.ar        1 UNL1     0.0305
     14 C         5.874447   5.245793   -3.010038 C.2        1 UNL1     0.0924
     15 N         7.088164   3.774451   -4.096947 N.pl3        1 UNL1     -0.3170
     16 C         5.821662   3.172651   -3.774359 C.3        1 UNL1     0.1275
     17 N         5.189397   4.127032   -2.790935 N.2        1 UNL1     -0.2557
     18 C         4.960657   3.229114   -5.032605 C.3        1 UNL1     0.0016
     19 C         5.709852   2.546052   -6.16562 C.3        1 UNL1     0.0026
     20 N         5.9855   1.168771   -5.780724 N.3        1 UNL1     -0.3018
     21 C         6.757085   1.010773   -4.546195 C.3        1 UNL1     0.0026
     22 C         5.983963   1.700206   -3.420646 C.3        1 UNL1     0.0016
     23 C         6.424748   0.349587   -6.892768 C.3        1 UNL1     0.0012
     24 C         5.26363   0.096996   -7.867323 C.3        1 UNL1     -0.0339
     25 C         5.3489   1.019105   -9.094719 C.3        1 UNL1     -0.0615
     26 C         5.230377   -1.367242   -8.269423 C.3        1 UNL1     -0.0615
     27 C         6.308393   8.948482   -2.277382 C.ar        1 UNL1     0.1347
     28 C         5.354872   9.216455   -1.311443 C.ar        1 UNL1     0.0342
     29 C         4.658772   8.080718   -0.84592 C.ar        1 UNL1     0.1435
     30 C         4.877834   6.798891   -1.352035 C.ar        1 UNL1     0.0774
     31 O         3.622988   8.192468   0.01412 O.3        1 UNL1     -0.4436
     32 C         2.903154   6.957973   -0.122752 C.3        1 UNL1     0.3143
     33 C         3.915241   5.966808   -0.660791 C.2        1 UNL1     0.2504
     34 C         4.907822   10.581819   -0.868693 C.3        1 UNL1     -0.0327
     35 O         2.55188   6.521231   1.196003 O.2        1 UNL1     -0.4528
     36 C         -0.689337   4.581645   0.821029 C.3        1 UNL1     0.0854
     37 C         -0.99756   3.319872   -0.07365 C.3        1 UNL1     0.0236
     38 C         -1.590285   2.057956   0.718807 C.3        1 UNL1     0.1131
     39 C         -0.855072   1.529379   2.015857 C.3        1 UNL1     0.0200
     40 C         0.806667   1.387535   2.046516 C.3        1 UNL1     0.0661
     41 C         1.760268   0.620155   0.872045 C.3        1 UNL1     0.0091
     42 C         3.463418   0.986163   0.296961 C.3        1 UNL1     0.0661
     43 C         7.455759   7.47469   -3.944456 C.2        1 UNL1     0.2131
     44 O         7.849062   8.373234   -4.66603 O.2        1 UNL1     -0.2851
     45 O         7.115425   9.985119   -2.741626 O.3        1 UNL1     -0.5056
     46 O         3.93473   4.763388   -0.529438 O.2        1 UNL1     -0.2836
     47 C         5.572776   1.332741   1.893302 C.3        1 UNL1     -0.0566
     48 O         3.91562   -0.423898   0.376684 O.3        1 UNL1     -0.3909
     49 C         0.918709   0.384999   -0.362449 C.3        1 UNL1     -0.0577
     50 O         1.406658   2.60695   2.434794 O.3        1 UNL1     -0.3910
     51 O         -0.80413   4.392507   2.213322 O.3        1 UNL1     -0.3753
     52 C         0.039877   3.161039   -1.232721 C.3        1 UNL1     -0.0564
     53 O         -2.196311   1.017118   -0.176577 O.3        1 UNL1     -0.4608
     54 C         -2.394505   -0.298027   0.153639 C.2        1 UNL1     0.3042
     55 O         -1.812298   -1.279497   -0.306352 O.2        1 UNL1     -0.2512
     56 C         -3.408482   -0.498137   1.243832 C.3        1 UNL1     0.0332
     57 C         -1.569521   2.197514   3.281295 C.3        1 UNL1     -0.0567
     58 C         1.820526   7.200052   -1.200176 C.3        1 UNL1     0.0210
     59 C         -1.11521   5.57125   2.954713 C.3        1 UNL1     0.0372
     60 C         0.636764   5.21353   0.581579 C.2        1 UNL1     -0.0208
     61 C         1.554261   5.651289   1.444892 C.2        1 UNL1     0.0882
     62 H         4.68877   2.743674   0.547153 H        1 UNL1     0.0365
     63 H         6.327853   3.622578   -0.296151 H        1 UNL1     0.0576
     64 H         8.331958   1.507615   -1.29978 H        1 UNL1     0.0615
     65 H         8.256579   4.624736   -1.488818 H        1 UNL1     0.0622
     66 H         -1.437603   5.326343   0.515136 H        1 UNL1     0.0645
     67 H         -1.867674   3.626964   -0.679584 H        1 UNL1     0.0362
     68 H         -2.536056   2.492945   1.076332 H        1 UNL1     0.0741
     69 H         -1.183103   0.517667   2.213952 H        1 UNL1     0.0359
     70 H         0.925526   0.727972   2.927374 H        1 UNL1     0.0600
     71 H         1.808835   -0.40066   1.299287 H        1 UNL1     0.0348
     72 H         3.362711   1.474711   1.277009 H        1 UNL1     0.0602
     73 H         0.747604   5.410428   -0.455819 H        1 UNL1     0.0628
     74 H         1.544011   5.441219   2.514941 H        1 UNL1     0.1022
     75 H         10.91005   2.272614   -3.524224 H        1 UNL1     0.0279
     76 H         10.773584   3.486343   -4.733165 H        1 UNL1     0.0279
     77 H         11.888303   3.666084   -3.318813 H        1 UNL1     0.0279
     78 H         9.023488   4.821948   -5.08127 H        1 UNL1     0.1553
     79 H         7.750424   3.347565   -4.718326 H        1 UNL1     0.1484
     80 H         4.001723   2.736173   -4.832052 H        1 UNL1     0.0317
     81 H         4.73003   4.265203   -5.302755 H        1 UNL1     0.0317
     82 H         6.637735   3.079261   -6.419851 H        1 UNL1     0.0428
     83 H         5.078898   2.599286   -7.053378 H        1 UNL1     0.0428
     84 H         6.881683   -0.031727   -4.237197 H        1 UNL1     0.0428
     85 H         7.785677   1.381018   -4.656802 H        1 UNL1     0.0428
     86 H         6.506727   1.451523   -2.515736 H        1 UNL1     0.0317
     87 H         5.006396   1.220482   -3.289027 H        1 UNL1     0.0317
     88 H         7.216228   0.892828   -7.425445 H        1 UNL1     0.0429
     89 H         6.861667   -0.595019   -6.544063 H        1 UNL1     0.0429
     90 H         4.314575   0.287844   -7.35246 H        1 UNL1     0.0308
     91 H         6.301177   0.896044   -9.619245 H        1 UNL1     0.0233
     92 H         4.528949   0.816585   -9.787737 H        1 UNL1     0.0233
     93 H         5.267995   2.079539   -8.826819 H        1 UNL1     0.0233
     94 H         4.570248   -1.507075   -9.132274 H        1 UNL1     0.0233
     95 H         6.232613   -1.699301   -8.554416 H        1 UNL1     0.0233
     96 H         4.868853   -1.997418   -7.45202 H        1 UNL1     0.0233
     97 H         4.08018   10.532067   -0.167434 H        1 UNL1     0.0280
     98 H         5.706001   11.131604   -0.353036 H        1 UNL1     0.0280
     99 H         4.583385   11.16618   -1.745253 H        1 UNL1     0.0280
     100 H         6.645639   10.747287   -3.031495 H        1 UNL1     0.2922
     101 H         4.711028   0.908909   2.408485 H        1 UNL1     0.0236
     102 H         6.036537   2.136068   2.464769 H        1 UNL1     0.0236
     103 H         6.321619   0.523175   1.887881 H        1 UNL1     0.0236
     104 H         4.33564   -0.550022   1.249981 H        1 UNL1     0.2098
     105 H         0.700415   1.283014   -0.934923 H        1 UNL1     0.0234
     106 H         1.285644   -0.402598   -1.020459 H        1 UNL1     0.0234
     107 H         0.0   -0.0   0.0 H        1 UNL1     0.0234
     108 H         1.256067   3.247172   1.712848 H        1 UNL1     0.2098
     109 H         1.068787   3.062452   -0.859443 H        1 UNL1     0.0234
     110 H         -0.188341   2.325426   -1.903103 H        1 UNL1     0.0234
     111 H         0.046121   4.038253   -1.89333 H        1 UNL1     0.0234
     112 H         -3.503271   -1.563927   1.472855 H        1 UNL1     0.0342
     113 H         -3.166291   0.073682   2.138378 H        1 UNL1     0.0342
     114 H         -4.381727   -0.144801   0.876255 H        1 UNL1     0.0342
     115 H         -2.640925   1.957057   3.319547 H        1 UNL1     0.0234
     116 H         -1.133978   1.909777   4.240231 H        1 UNL1     0.0234
     117 H         -1.599935   3.299854   3.238125 H        1 UNL1     0.0234
     118 H         0.919178   7.680977   -0.781501 H        1 UNL1     0.0309
     119 H         2.181897   7.792234   -2.046896 H        1 UNL1     0.0309
     120 H         1.434611   6.267102   -1.625359 H        1 UNL1     0.0309
     121 H         -0.279397   6.261345   2.842729 H        1 UNL1     0.0524
     122 H         -2.017678   6.078455   2.574802 H        1 UNL1     0.0524
     123 H         -1.262499   5.327911   4.003133 H        1 UNL1     0.0524
@<TRIPOS>BOND
     1     1     2    1
     2     1    42    1
     3     2     3    2
     4     3     4    1
     5     4     5    2
     6     5     7    1
     7     6    75    1
     8     6    76    1
     9     6    77    1
    10     7     9   am
    11     9    10    1
    12    10    11    2
    13    10    43    1
    14    11    14    1
    15    11    15    1
    16    12    13   ar
    17    12    27   ar
    18    12    43    1
    19    13    14    1
    20    13    30   ar
    21    14    17    2
    22    15    16    1
    23    16    17    1
    24    16    18    1
    25    16    22    1
    26    18    19    1
    27    19    20    1
    28    20    21    1
    29    21    22    1
    30    23    24    1
    31    23    88    1
    32    23    89    1
    33    24    25    1
    34    24    26    1
    35    24    90    1
    36    25    91    1
    37    25    92    1
    38    25    93    1
    39    26    94    1
    40    26    95    1
    41    26    96    1
    42    27    28   ar
    43    28    29   ar
    44    29    30   ar
    45    29    31    1
    46    30    33    1
    47    31    32    1
    48    32    33    1
    49    32    35    1
    50    34    97    1
    51    34    98    1
    52    34    99    1
    53    35    61    1
    54    36    37    1
    55    36    60    1
    56    37    38    1
    57    38    39    1
    58    39    40    1
    59    40    41    1
    60    41    42    1
    61    45   100    1
    62    47   101    1
    63    47   102    1
    64    47   103    1
    65    48   104    1
    66    49   105    1
    67    49   106    1
    68    49   107    1
    69    50   108    1
    70    51    59    1
    71    52   109    1
    72    52   110    1
    73    52   111    1
    74    53    54    1
    75    54    55    2
    76    54    56    1
    77    56   112    1
    78    56   113    1
    79    56   114    1
    80    57   115    1
    81    57   116    1
    82    57   117    1
    83    58   118    1
    84    58   119    1
    85    58   120    1
    86    59   121    1
    87    59   122    1
    88    59   123    1
    89    60    61    2
    90     1    47    1
    91     1    62    1
    92     2    63    1
    93     3    64    1
    94     4    65    1
    95     5     6    1
    96     7     8    2
    97     9    78    1
    98    15    79    1
    99    18    80    1
   100    18    81    1
   101    19    82    1
   102    19    83    1
   103    20    23    1
   104    21    84    1
   105    21    85    1
   106    22    86    1
   107    22    87    1
   108    27    45    1
   109    28    34    1
   110    32    58    1
   111    33    46    2
   112    36    51    1
   113    36    66    1
   114    37    52    1
   115    37    67    1
   116    38    53    1
   117    38    68    1
   118    42    48    1
   119    42    72    1
   120    43    44    2
   121    60    73    1
   122    61    74    1
   123    39    69    1
   124    39    57    1
   125    40    70    1
   126    40    50    1
   127    41    71    1
   128    41    49    1
