@<TRIPOS>MOLECULE
*****
 123 128 0 0 0
SMALL
GASTEIGER

@<TRIPOS>ATOM
     1 C         5.192036   1.671539   0.497985 C.3        1 UNL1     0.0009
     2 C         6.620377   2.515896   -0.329022 C.2        1 UNL1     -0.0787
     3 C         7.888652   2.447708   -1.023913 C.2        1 UNL1     -0.0649
     4 C         8.763776   3.719216   -1.719457 C.2        1 UNL1     -0.0542
     5 C         9.768954   4.06002   -2.657832 C.2        1 UNL1     0.0115
     6 C         10.874781   3.479105   -3.581416 C.3        1 UNL1     -0.0348
     7 C         9.867305   5.576717   -3.174502 C.2        1 UNL1     0.2441
     8 O         10.705954   6.366712   -2.763283 O.2        1 UNL1     -0.2702
     9 N         9.097483   5.861227   -4.315808 N.am        1 UNL1     -0.2772
     10 C         7.824611   6.238885   -3.954567 C.2        1 UNL1     0.1049
     11 C         6.975068   5.25866   -3.706257 C.2        1 UNL1     0.0801
     12 C         6.568225   7.767258   -2.423913 C.ar        1 UNL1     0.0753
     13 C         5.806772   6.620584   -2.031567 C.ar        1 UNL1     0.0305
     14 C         5.899087   5.355833   -2.757469 C.2        1 UNL1     0.0924
     15 N         7.081884   3.9409   -3.948384 N.pl3        1 UNL1     -0.3170
     16 C         5.812364   3.334451   -3.647067 C.3        1 UNL1     0.1275
     17 N         5.203533   4.233364   -2.598734 N.2        1 UNL1     -0.2557
     18 C         4.936783   3.477903   -4.888228 C.3        1 UNL1     0.0016
     19 C         5.66392   2.857698   -6.070686 C.3        1 UNL1     0.0026
     20 N         5.927882   1.456341   -5.774797 N.3        1 UNL1     -0.3018
     21 C         6.712562   1.214007   -4.562395 C.3        1 UNL1     0.0026
     22 C         5.961486   1.841296   -3.386687 C.3        1 UNL1     0.0016
     23 C         6.343758   0.702428   -6.94069 C.3        1 UNL1     0.0012
     24 C         5.167904   0.523277   -7.913844 C.3        1 UNL1     -0.0339
     25 C         5.249112   1.518276   -9.08322 C.3        1 UNL1     -0.0615
     26 C         5.112363   -0.912936   -8.40475 C.3        1 UNL1     -0.0615
     27 C         6.385869   9.001286   -1.804204 C.ar        1 UNL1     0.1347
     28 C         5.447467   9.21978   -0.811373 C.ar        1 UNL1     0.0342
     29 C         4.743676   8.065305   -0.407606 C.ar        1 UNL1     0.1435
     30 C         4.941308   6.814756   -0.994367 C.ar        1 UNL1     0.0774
     31 O         3.719875   8.135322   0.470993 O.3        1 UNL1     -0.4436
     32 C         2.983821   6.919672   0.267791 C.3        1 UNL1     0.3143
     33 C         3.977423   5.952383   -0.34321 C.2        1 UNL1     0.2504
     34 C         5.022097   10.560137   -0.279768 C.3        1 UNL1     -0.0327
     35 O         2.643524   6.406408   1.561626 O.2        1 UNL1     -0.4528
     36 C         -0.624825   4.5297   1.110025 C.3        1 UNL1     0.0854
     37 C         -0.95891   3.328963   0.143515 C.3        1 UNL1     0.0236
     38 C         -1.556846   2.02726   0.864477 C.3        1 UNL1     0.1131
     39 C         -0.812168   1.411625   2.116962 C.3        1 UNL1     0.0200
     40 C         0.848021   1.249733   2.117362 C.3        1 UNL1     0.0661
     41 C         1.778028   0.545663   0.885703 C.3        1 UNL1     0.0091
     42 C         3.478249   0.9275   0.312247 C.3        1 UNL1     0.0661
     43 C         7.495209   7.6204   -3.573432 C.2        1 UNL1     0.2131
     44 O         7.890305   8.557288   -4.243414 O.2        1 UNL1     -0.2851
     45 O         7.199416   10.055546   -2.214222 O.3        1 UNL1     -0.5056
     46 O         3.98423   4.743013   -0.286361 O.2        1 UNL1     -0.2836
     47 C         5.610916   1.15161   1.899483 C.3        1 UNL1     -0.0566
     48 O         3.914622   -0.489725   0.299269 O.3        1 UNL1     -0.3909
     49 C         0.918718   0.396388   -0.349934 C.3        1 UNL1     -0.0577
     50 O         1.467143   2.436168   2.572095 O.3        1 UNL1     -0.3910
     51 O         -0.724837   4.256398   2.489422 O.3        1 UNL1     -0.3753
     52 C         0.062331   3.230367   -1.03644 C.3        1 UNL1     -0.0564
     53 O         -2.186077   1.050372   -0.085304 O.3        1 UNL1     -0.4608
     54 C         -2.395818   -0.280345   0.165958 C.2        1 UNL1     0.3042
     55 O         -1.830965   -1.237998   -0.360996 O.2        1 UNL1     -0.2512
     56 C         -3.398704   -0.536001   1.254798 C.3        1 UNL1     0.0332
     57 C         -1.503123   2.008385   3.430215 C.3        1 UNL1     -0.0567
     58 C         1.89106   7.23969   -0.778628 C.3        1 UNL1     0.0210
     59 C         -1.012824   5.390586   3.305845 C.3        1 UNL1     0.0372
     60 C         0.705659   5.16039   0.892761 C.2        1 UNL1     -0.0208
     61 C         1.638765   5.533903   1.769428 C.2        1 UNL1     0.0882
     62 H         4.72734   2.652546   0.654171 H        1 UNL1     0.0365
     63 H         6.366315   3.563514   -0.15461 H        1 UNL1     0.0576
     64 H         8.332765   1.492321   -1.312199 H        1 UNL1     0.0615
     65 H         8.292085   4.615811   -1.308229 H        1 UNL1     0.0622
     66 H         -1.36788   5.300091   0.860197 H        1 UNL1     0.0645
     67 H         -1.832655   3.682451   -0.431094 H        1 UNL1     0.0362
     68 H         -2.492949   2.449854   1.260265 H        1 UNL1     0.0741
     69 H         -1.149739   0.393329   2.256698 H        1 UNL1     0.0359
     70 H         0.969795   0.535858   2.954388 H        1 UNL1     0.0600
     71 H         1.81969   -0.500019   1.248707 H        1 UNL1     0.0348
     72 H         3.395329   1.355805   1.3217 H        1 UNL1     0.0602
     73 H         0.806146   5.419607   -0.131913 H        1 UNL1     0.0628
     74 H         1.639096   5.258411   2.824578 H        1 UNL1     0.1022
     75 H         10.892387   2.364309   -3.518532 H        1 UNL1     0.0279
     76 H         10.755577   3.651679   -4.648692 H        1 UNL1     0.0279
     77 H         11.889548   3.731531   -3.24049 H        1 UNL1     0.0279
     78 H         9.017336   5.025534   -4.891369 H        1 UNL1     0.1553
     79 H         7.731391   3.5458   -4.603343 H        1 UNL1     0.1484
     80 H         3.974587   2.984209   -4.705987 H        1 UNL1     0.0317
     81 H         4.715186   4.531167   -5.091158 H        1 UNL1     0.0317
     82 H         6.594891   3.395234   -6.303623 H        1 UNL1     0.0428
     83 H         5.022844   2.972541   -6.945262 H        1 UNL1     0.0428
     84 H         6.828543   0.153126   -4.319717 H        1 UNL1     0.0428
     85 H         7.744048   1.57893   -4.663313 H        1 UNL1     0.0428
     86 H         6.492277   1.53153   -2.505612 H        1 UNL1     0.0317
     87 H         4.979975   1.365247   -3.27219 H        1 UNL1     0.0317
     88 H         7.135063   1.26865   -7.449142 H        1 UNL1     0.0429
     89 H         6.773661   -0.266663   -6.656402 H        1 UNL1     0.0429
     90 H         4.227542   0.692549   -7.375998 H        1 UNL1     0.0308
     91 H         6.193381   1.417218   -9.626584 H        1 UNL1     0.0233
     92 H         4.418409   1.367962   -9.776723 H        1 UNL1     0.0233
     93 H         5.184078   2.561015   -8.749601 H        1 UNL1     0.0233
     94 H         4.418603   -0.997228   -9.248212 H        1 UNL1     0.0233
     95 H         6.10125   -1.228713   -8.74877 H        1 UNL1     0.0233
     96 H         4.779963   -1.592121   -7.614696 H        1 UNL1     0.0233
     97 H         4.235803   10.472588   0.464077 H        1 UNL1     0.0280
     98 H         5.846594   11.08958   0.21536 H        1 UNL1     0.0280
     99 H         4.646572   11.183317   -1.107852 H        1 UNL1     0.0280
     100 H         6.734142   10.83241   -2.470396 H        1 UNL1     0.2922
     101 H         4.750556   0.70642   2.398725 H        1 UNL1     0.0236
     102 H         6.091127   1.912995   2.51322 H        1 UNL1     0.0236
     103 H         6.349976   0.335659   1.834616 H        1 UNL1     0.0236
     104 H         4.343753   -0.674084   1.157657 H        1 UNL1     0.2098
     105 H         0.704121   1.330345   -0.86324 H        1 UNL1     0.0234
     106 H         1.268212   -0.35318   -1.059814 H        1 UNL1     0.0234
     107 H         0.0   -0.0   0.0 H        1 UNL1     0.0234
     108 H         1.276899   3.132968   1.914794 H        1 UNL1     0.2098
     109 H         1.094482   3.097552   -0.683259 H        1 UNL1     0.0234
     110 H         -0.183962   2.440242   -1.753926 H        1 UNL1     0.0234
     111 H         0.070916   4.146504   -1.641887 H        1 UNL1     0.0234
     112 H         -3.503332   -1.612763   1.419062 H        1 UNL1     0.0342
     113 H         -3.138833   -0.023124   2.179605 H        1 UNL1     0.0342
     114 H         -4.372105   -0.149907   0.922252 H        1 UNL1     0.0342
     115 H         -2.576758   1.77793   3.467453 H        1 UNL1     0.0234
     116 H         -1.059343   1.65728   4.363935 H        1 UNL1     0.0234
     117 H         -1.520976   3.111559   3.455302 H        1 UNL1     0.0234
     118 H         1.000666   7.703868   -0.319561 H        1 UNL1     0.0309
     119 H         2.249063   7.878885   -1.591934 H        1 UNL1     0.0309
     120 H         1.488934   6.339057   -1.255347 H        1 UNL1     0.0309
     121 H         -0.170308   6.076956   3.225712 H        1 UNL1     0.0524
     122 H         -1.913781   5.930223   2.969535 H        1 UNL1     0.0524
     123 H         -1.150171   5.084744   4.339136 H        1 UNL1     0.0524
@<TRIPOS>BOND
     1     1     2    1
     2     1    42    1
     3     2     3    2
     4     3     4    1
     5     4     5    2
     6     5     7    1
     7     6    75    1
     8     6    76    1
     9     6    77    1
    10     7     9   am
    11     9    10    1
    12    10    11    2
    13    10    43    1
    14    11    14    1
    15    11    15    1
    16    12    13   ar
    17    12    27   ar
    18    12    43    1
    19    13    14    1
    20    13    30   ar
    21    14    17    2
    22    15    16    1
    23    16    17    1
    24    16    18    1
    25    16    22    1
    26    18    19    1
    27    19    20    1
    28    20    21    1
    29    21    22    1
    30    23    24    1
    31    23    88    1
    32    23    89    1
    33    24    25    1
    34    24    26    1
    35    24    90    1
    36    25    91    1
    37    25    92    1
    38    25    93    1
    39    26    94    1
    40    26    95    1
    41    26    96    1
    42    27    28   ar
    43    28    29   ar
    44    29    30   ar
    45    29    31    1
    46    30    33    1
    47    31    32    1
    48    32    33    1
    49    32    35    1
    50    34    97    1
    51    34    98    1
    52    34    99    1
    53    35    61    1
    54    36    37    1
    55    36    60    1
    56    37    38    1
    57    38    39    1
    58    39    40    1
    59    40    41    1
    60    41    42    1
    61    45   100    1
    62    47   101    1
    63    47   102    1
    64    47   103    1
    65    48   104    1
    66    49   105    1
    67    49   106    1
    68    49   107    1
    69    50   108    1
    70    51    59    1
    71    52   109    1
    72    52   110    1
    73    52   111    1
    74    53    54    1
    75    54    55    2
    76    54    56    1
    77    56   112    1
    78    56   113    1
    79    56   114    1
    80    57   115    1
    81    57   116    1
    82    57   117    1
    83    58   118    1
    84    58   119    1
    85    58   120    1
    86    59   121    1
    87    59   122    1
    88    59   123    1
    89    60    61    2
    90     1    47    1
    91     1    62    1
    92     2    63    1
    93     3    64    1
    94     4    65    1
    95     5     6    1
    96     7     8    2
    97     9    78    1
    98    15    79    1
    99    18    80    1
   100    18    81    1
   101    19    82    1
   102    19    83    1
   103    20    23    1
   104    21    84    1
   105    21    85    1
   106    22    86    1
   107    22    87    1
   108    27    45    1
   109    28    34    1
   110    32    58    1
   111    33    46    2
   112    36    51    1
   113    36    66    1
   114    37    52    1
   115    37    67    1
   116    38    53    1
   117    38    68    1
   118    42    48    1
   119    42    72    1
   120    43    44    2
   121    60    73    1
   122    61    74    1
   123    39    69    1
   124    39    57    1
   125    40    70    1
   126    40    50    1
   127    41    71    1
   128    41    49    1
