@<TRIPOS>MOLECULE
*****
 123 128 0 0 0
SMALL
GASTEIGER

@<TRIPOS>ATOM
     1 C         2.584811   -1.337897   -3.970486 C.3        1 UNL1     0.0009
     2 C         2.705154   -2.720545   -5.199648 C.2        1 UNL1     -0.0787
     3 C         3.172317   -4.042171   -5.561741 C.2        1 UNL1     -0.0649
     4 C         2.821135   -4.92172   -6.965102 C.2        1 UNL1     -0.0542
     5 C         2.793398   -6.211555   -7.550452 C.2        1 UNL1     0.0115
     6 C         3.222034   -7.691389   -7.35124 C.3        1 UNL1     -0.0348
     7 C         1.922476   -6.443223   -8.878915 C.2        1 UNL1     0.2441
     8 O         2.417268   -6.510175   -9.995707 O.2        1 UNL1     -0.2702
     9 N         0.588809   -6.824048   -8.649881 N.am        1 UNL1     -0.2772
     10 C         -0.211541   -5.712889   -8.515394 C.2        1 UNL1     0.1049
     11 C         -0.234614   -5.15353   -7.31923 C.2        1 UNL1     0.0801
     12 C         -0.763036   -3.523472   -9.592262 C.ar        1 UNL1     0.0753
     13 C         -0.570272   -2.930462   -8.303934 C.ar        1 UNL1     0.0305
     14 C         -0.42874   -3.74587   -7.09972 C.2        1 UNL1     0.0924
     15 N         0.232633   -5.608193   -6.143862 N.pl3        1 UNL1     -0.3170
     16 C         -0.197199   -4.695884   -5.117612 C.3        1 UNL1     0.1275
     17 N         -0.343167   -3.371466   -5.826368 N.2        1 UNL1     -0.2557
     18 C         -1.6054   -5.112048   -4.703512 C.3        1 UNL1     0.0016
     19 C         -1.575203   -6.570381   -4.274627 C.3        1 UNL1     0.0026
     20 N         -0.639799   -6.713093   -3.167522 N.3        1 UNL1     -0.3018
     21 C         0.729835   -6.279349   -3.450965 C.3        1 UNL1     0.0026
     22 C         0.67636   -4.810694   -3.875331 C.3        1 UNL1     0.0016
     23 C         -0.755985   -7.990197   -2.492134 C.3        1 UNL1     0.0012
     24 C         -1.841503   -8.853055   -3.154618 C.3        1 UNL1     -0.0339
     25 C         -2.214079   -8.317098   -4.546736 C.3        1 UNL1     -0.0615
     26 C         -1.389781   -10.301838   -3.21589 C.3        1 UNL1     -0.0615
     27 C         -1.017649   -2.741057   -10.716146 C.ar        1 UNL1     0.1347
     28 C         -1.141436   -1.363921   -10.668994 C.ar        1 UNL1     0.0342
     29 C         -0.899354   -0.798139   -9.399171 C.ar        1 UNL1     0.1435
     30 C         -0.607543   -1.566616   -8.271558 C.ar        1 UNL1     0.0774
     31 O         -1.089533   0.518962   -9.166615 O.3        1 UNL1     -0.4436
     32 C         -1.213161   0.621194   -7.740032 C.3        1 UNL1     0.3143
     33 C         -0.511874   -0.605527   -7.192706 C.2        1 UNL1     0.2504
     34 C         -1.658401   -0.486752   -11.775078 C.3        1 UNL1     -0.0327
     35 O         -0.446798   1.759148   -7.32651 O.2        1 UNL1     -0.4528
     36 C         -2.16973   3.10176   -4.22216 C.3        1 UNL1     0.0854
     37 C         -2.49042   2.366782   -2.864041 C.3        1 UNL1     0.0236
     38 C         -1.923083   3.093539   -1.551906 C.3        1 UNL1     0.1131
     39 C         -0.402756   3.525903   -1.489156 C.3        1 UNL1     0.0200
     40 C         0.791794   2.495135   -2.030455 C.3        1 UNL1     0.0661
     41 C         0.964375   0.862633   -1.602949 C.3        1 UNL1     0.0091
     42 C         1.613714   -0.557433   -2.565848 C.3        1 UNL1     0.0661
     43 C         -0.771705   -5.00507   -9.67624 C.2        1 UNL1     0.2131
     44 O         -1.295827   -5.624696   -10.584038 O.2        1 UNL1     -0.2851
     45 O         -1.147767   -3.393531   -11.940395 O.3        1 UNL1     -0.5056
     46 O         0.024602   -0.749669   -6.116941 O.2        1 UNL1     -0.2836
     47 C         3.935053   -0.577131   -3.880692 C.3        1 UNL1     -0.0566
     48 O         2.485012   -1.04817   -1.470799 O.3        1 UNL1     -0.3909
     49 C         -0.309045   0.396286   -0.93331 C.3        1 UNL1     -0.0577
     50 O         1.000899   2.655669   -3.419062 O.3        1 UNL1     -0.3910
     51 O         -1.28681   4.197426   -4.136152 O.3        1 UNL1     -0.3753
     52 C         -2.473409   0.811647   -3.025947 C.3        1 UNL1     -0.0564
     53 O         -2.526139   2.584665   -0.27531 O.3        1 UNL1     -0.4608
     54 C         -1.831499   2.278957   0.86572 C.2        1 UNL1     0.3042
     55 O         -1.843628   1.216037   1.48531 O.2        1 UNL1     -0.2512
     56 C         -0.92895   3.384466   1.334727 C.3        1 UNL1     0.0332
     57 C         -0.319231   5.060822   -1.930994 C.3        1 UNL1     -0.0567
     58 C         -2.723117   0.515612   -7.423151 C.3        1 UNL1     0.0210
     59 C         -1.105495   4.719267   -2.820602 C.3        1 UNL1     0.0372
     60 C         -1.657362   2.2218   -5.30766 C.2        1 UNL1     -0.0208
     61 C         -0.644223   2.3974   -6.157047 C.2        1 UNL1     0.0882
     62 H         1.960697   -0.784717   -4.682655 H        1 UNL1     0.0365
     63 H         2.207809   -2.270668   -6.061464 H        1 UNL1     0.0576
     64 H         3.691615   -4.68208   -4.844836 H        1 UNL1     0.0615
     65 H         2.382009   -4.178093   -7.635676 H        1 UNL1     0.0622
     66 H         -3.14312   3.474646   -4.570749 H        1 UNL1     0.0645
     67 H         -3.578574   2.501817   -2.736577 H        1 UNL1     0.0362
     68 H         -2.492151   4.034368   -1.602141 H        1 UNL1     0.0741
     69 H         -0.128397   3.684353   -0.454734 H        1 UNL1     0.0359
     70 H         1.676851   2.965829   -1.561221 H        1 UNL1     0.0600
     71 H         1.643316   0.961294   -0.733315 H        1 UNL1     0.0348
     72 H         1.994869   0.34608   -3.063544 H        1 UNL1     0.0602
     73 H         -2.318548   1.400581   -5.432891 H        1 UNL1     0.0628
     74 H         0.110664   3.17881   -6.063333 H        1 UNL1     0.1022
     75 H         2.710678   -8.350919   -8.093243 H        1 UNL1     0.0279
     76 H         4.272144   -7.919204   -7.519878 H        1 UNL1     0.0279
     77 H         2.862635   -8.114079   -6.401573 H        1 UNL1     0.0279
     78 H         0.528148   -7.352142   -7.781829 H        1 UNL1     0.1553
     79 H         0.438176   -6.573398   -5.962025 H        1 UNL1     0.1484
     80 H         -1.945217   -4.461792   -3.888369 H        1 UNL1     0.0317
     81 H         -2.312383   -4.97553   -5.528853 H        1 UNL1     0.0317
     82 H         -1.305439   -7.234596   -5.108868 H        1 UNL1     0.0428
     83 H         -2.589514   -6.846919   -3.985231 H        1 UNL1     0.0428
     84 H         1.392368   -6.32198   -2.580883 H        1 UNL1     0.0428
     85 H         1.219104   -6.927764   -4.190891 H        1 UNL1     0.0428
     86 H         1.69986   -4.491947   -3.944877 H        1 UNL1     0.0317
     87 H         0.274987   -4.198917   -3.058186 H        1 UNL1     0.0317
     88 H         0.20631   -8.511433   -2.57929 H        1 UNL1     0.0429
     89 H         -0.954296   -7.858075   -1.420691 H        1 UNL1     0.0429
     90 H         -2.739658   -8.845693   -2.525749 H        1 UNL1     0.0308
     91 H         -3.066458   -8.859481   -4.966704 H        1 UNL1     0.0233
     92 H         -2.454642   -7.252452   -4.49912 H        1 UNL1     0.0233
     93 H         -1.390913   -8.412763   -5.265125 H        1 UNL1     0.0233
     94 H         -2.258568   -10.966041   -3.278195 H        1 UNL1     0.0233
     95 H         -0.776421   -10.464624   -4.106537 H        1 UNL1     0.0233
     96 H         -0.807816   -10.576118   -2.331551 H        1 UNL1     0.0233
     97 H         -2.113965   0.422667   -11.39475 H        1 UNL1     0.0280
     98 H         -0.858746   -0.1614   -12.453277 H        1 UNL1     0.0280
     99 H         -2.416463   -1.03552   -12.357565 H        1 UNL1     0.0280
     100 H         -0.490261   -3.169465   -12.575299 H        1 UNL1     0.2922
     101 H         4.73081   -1.189173   -4.304755 H        1 UNL1     0.0236
     102 H         4.1713   -0.240835   -2.871695 H        1 UNL1     0.0236
     103 H         3.933884   0.341955   -4.490177 H        1 UNL1     0.0236
     104 H         2.991944   -1.809103   -1.815722 H        1 UNL1     0.2098
     105 H         -1.028845   1.186985   -0.737111 H        1 UNL1     0.0234
     106 H         -0.797742   -0.446881   -1.42134 H        1 UNL1     0.0234
     107 H         0.0   -0.0   0.0 H        1 UNL1     0.0234
     108 H         0.152996   2.943758   -3.808719 H        1 UNL1     0.2098
     109 H         -2.699457   0.292848   -2.083895 H        1 UNL1     0.0234
     110 H         -3.146595   0.453395   -3.812216 H        1 UNL1     0.0234
     111 H         -1.484709   0.447789   -3.335828 H        1 UNL1     0.0234
     112 H         -1.419257   4.351919   1.189884 H        1 UNL1     0.0342
     113 H         -0.624256   3.252246   2.371801 H        1 UNL1     0.0342
     114 H         -0.020653   3.371351   0.716673 H        1 UNL1     0.0342
     115 H         -1.312341   5.529233   -1.969893 H        1 UNL1     0.0234
     116 H         0.308698   5.675726   -1.283193 H        1 UNL1     0.0234
     117 H         0.023513   5.201322   -2.970574 H        1 UNL1     0.0234
     118 H         -3.173036   -0.398617   -7.848315 H        1 UNL1     0.0309
     119 H         -2.941064   0.556898   -6.351238 H        1 UNL1     0.0309
     120 H         -3.306346   1.321231   -7.882421 H        1 UNL1     0.0309
     121 H         -0.546339   3.980525   -2.247049 H        1 UNL1     0.0524
     122 H         -0.520141   5.653822   -2.81823 H        1 UNL1     0.0524
     123 H         -2.068702   4.905349   -2.354019 H        1 UNL1     0.0524
@<TRIPOS>BOND
     1     1     2    1
     2     1    42    1
     3     2     3    2
     4     3     4    1
     5     4     5    2
     6     5     7    1
     7     6    75    1
     8     6    76    1
     9     6    77    1
    10     7     9   am
    11     9    10    1
    12    10    11    2
    13    10    43    1
    14    11    14    1
    15    11    15    1
    16    12    13   ar
    17    12    27   ar
    18    12    43    1
    19    13    14    1
    20    13    30   ar
    21    14    17    2
    22    15    16    1
    23    16    17    1
    24    16    18    1
    25    16    22    1
    26    18    19    1
    27    19    20    1
    28    20    21    1
    29    21    22    1
    30    23    24    1
    31    23    88    1
    32    23    89    1
    33    24    25    1
    34    24    26    1
    35    24    90    1
    36    25    91    1
    37    25    92    1
    38    25    93    1
    39    26    94    1
    40    26    95    1
    41    26    96    1
    42    27    28   ar
    43    28    29   ar
    44    29    30   ar
    45    29    31    1
    46    30    33    1
    47    31    32    1
    48    32    33    1
    49    32    35    1
    50    34    97    1
    51    34    98    1
    52    34    99    1
    53    35    61    1
    54    36    37    1
    55    36    60    1
    56    37    38    1
    57    38    39    1
    58    39    40    1
    59    40    41    1
    60    41    42    1
    61    45   100    1
    62    47   101    1
    63    47   102    1
    64    47   103    1
    65    48   104    1
    66    49   105    1
    67    49   106    1
    68    49   107    1
    69    50   108    1
    70    51    59    1
    71    52   109    1
    72    52   110    1
    73    52   111    1
    74    53    54    1
    75    54    55    2
    76    54    56    1
    77    56   112    1
    78    56   113    1
    79    56   114    1
    80    57   115    1
    81    57   116    1
    82    57   117    1
    83    58   118    1
    84    58   119    1
    85    58   120    1
    86    59   121    1
    87    59   122    1
    88    59   123    1
    89    60    61    2
    90     1    47    1
    91     1    62    1
    92     2    63    1
    93     3    64    1
    94     4    65    1
    95     5     6    1
    96     7     8    2
    97     9    78    1
    98    15    79    1
    99    18    80    1
   100    18    81    1
   101    19    82    1
   102    19    83    1
   103    20    23    1
   104    21    84    1
   105    21    85    1
   106    22    86    1
   107    22    87    1
   108    27    45    1
   109    28    34    1
   110    32    58    1
   111    33    46    2
   112    36    51    1
   113    36    66    1
   114    37    52    1
   115    37    67    1
   116    38    53    1
   117    38    68    1
   118    42    48    1
   119    42    72    1
   120    43    44    2
   121    60    73    1
   122    61    74    1
   123    39    69    1
   124    39    57    1
   125    40    70    1
   126    40    50    1
   127    41    71    1
   128    41    49    1
