@<TRIPOS>MOLECULE
*****
 123 128 0 0 0
SMALL
GASTEIGER

@<TRIPOS>ATOM
     1 C         -0.771772   0.297834   4.087942 C.3        1 UNL1     0.0009
     2 C         -0.180393   1.615791   5.249965 C.2        1 UNL1     -0.0787
     3 C         0.728277   2.062573   6.284736 C.2        1 UNL1     -0.0649
     4 C         0.863194   3.612249   6.953059 C.2        1 UNL1     -0.0542
     5 C         1.70341   4.497101   7.672888 C.2        1 UNL1     0.0115
     6 C         3.024111   4.594221   8.485069 C.3        1 UNL1     -0.0348
     7 C         1.382573   6.069732   7.643179 C.2        1 UNL1     0.2441
     8 O         0.837506   6.65526   8.568697 O.2        1 UNL1     -0.2702
     9 N         2.001585   6.777487   6.598162 N.am        1 UNL1     -0.2772
     10 C         1.210622   6.760791   5.472364 C.2        1 UNL1     0.1049
     11 C         1.303821   5.685361   4.711453 C.2        1 UNL1     0.0801
     12 C         -1.13033   7.160926   4.686762 C.ar        1 UNL1     0.0753
     13 C         -1.050955   5.882637   4.04779 C.ar        1 UNL1     0.0305
     14 C         0.21544   5.163272   3.930283 C.2        1 UNL1     0.0924
     15 N         2.200028   4.684022   4.737162 N.pl3        1 UNL1     -0.3170
     16 C         1.960258   3.850154   3.589369 C.3        1 UNL1     0.1275
     17 N         0.491446   4.029335   3.29237 N.2        1 UNL1     -0.2557
     18 C         2.708835   4.472037   2.414381 C.3        1 UNL1     0.0016
     19 C         4.174731   4.614044   2.791971 C.3        1 UNL1     0.0026
     20 N         4.704984   3.296062   3.11257 N.3        1 UNL1     -0.3018
     21 C         4.009138   2.591518   4.191358 C.3        1 UNL1     0.0026
     22 C         2.539591   2.45585   3.788963 C.3        1 UNL1     0.0016
     23 C         6.151925   3.274737   3.193513 C.3        1 UNL1     0.0012
     24 C         6.697191   4.686135   3.462578 C.3        1 UNL1     -0.0339
     25 C         8.050793   4.907962   2.767875 C.3        1 UNL1     -0.0615
     26 C         5.675476   5.728135   3.041728 C.3        1 UNL1     -0.0615
     27 C         -2.314358   7.89454   4.688765 C.ar        1 UNL1     0.1347
     28 C         -3.468555   7.472913   4.053068 C.ar        1 UNL1     0.0342
     29 C         -3.381093   6.18971   3.472633 C.ar        1 UNL1     0.1435
     30 C         -2.212343   5.427618   3.494029 C.ar        1 UNL1     0.0774
     31 O         -4.385253   5.685526   2.722654 O.3        1 UNL1     -0.4436
     32 C         -3.771671   4.644382   1.947794 C.3        1 UNL1     0.3143
     33 C         -2.539601   4.240548   2.7321 C.2        1 UNL1     0.2504
     34 C         -4.690951   8.310144   3.798331 C.3        1 UNL1     -0.0327
     35 O         -4.661926   3.521666   1.962184 O.2        1 UNL1     -0.4528
     36 C         -4.102437   1.707721   -1.324861 C.3        1 UNL1     0.0854
     37 C         -2.769774   1.107027   -1.917059 C.3        1 UNL1     0.0236
     38 C         -2.845115   -0.445464   -2.311825 C.3        1 UNL1     0.1131
     39 C         -3.393605   -1.496229   -1.264294 C.3        1 UNL1     0.0200
     40 C         -2.920701   -1.422003   0.333608 C.3        1 UNL1     0.0661
     41 C         -1.323629   -1.301837   0.892651 C.3        1 UNL1     0.0091
     42 C         -0.642825   -0.471852   2.380278 C.3        1 UNL1     0.0661
     43 C         0.114467   7.7199   5.270105 C.2        1 UNL1     0.2131
     44 O         0.285487   8.90714   5.479749 O.2        1 UNL1     -0.2851
     45 O         -2.319808   9.10869   5.372321 O.3        1 UNL1     -0.5056
     46 O         -1.969655   3.172418   2.742656 O.2        1 UNL1     -0.2836
     47 C         -1.569051   -0.785875   4.862476 C.3        1 UNL1     -0.0566
     48 O         0.191843   -1.629205   2.783985 O.3        1 UNL1     -0.3909
     49 C         -0.426835   -0.932555   -0.267903 C.3        1 UNL1     -0.0577
     50 O         -3.755219   -0.544917   1.063007 O.3        1 UNL1     -0.3910
     51 O         -5.129079   0.780373   -1.053821 O.3        1 UNL1     -0.3753
     52 C         -1.502143   1.734669   -1.250629 C.3        1 UNL1     -0.0564
     53 O         -1.709699   -0.899714   -3.181776 O.3        1 UNL1     -0.4608
     54 C         -1.83797   -1.542263   -4.385357 C.2        1 UNL1     0.3042
     55 O         -0.947932   -2.078254   -5.044434 O.2        1 UNL1     -0.2512
     56 C         -3.254793   -1.617368   -4.879001 C.3        1 UNL1     0.0332
     57 C         -4.947353   -1.718161   -1.572171 C.3        1 UNL1     -0.0567
     58 C         -3.325325   5.294394   0.61746 C.3        1 UNL1     0.0210
     59 C         -4.854594   -0.121712   0.01705 C.3        1 UNL1     0.0372
     60 C         -3.930248   2.528917   -0.095573 C.2        1 UNL1     -0.0208
     61 C         -4.626542   2.538919   1.041888 C.2        1 UNL1     0.0882
     62 H         -1.509707   1.005533   3.691299 H        1 UNL1     0.0365
     63 H         -0.917728   2.398976   5.061738 H        1 UNL1     0.0576
     64 H         1.557711   1.439324   6.626362 H        1 UNL1     0.0615
     65 H         -0.044613   4.120803   6.61729 H        1 UNL1     0.0622
     66 H         -4.462539   2.398201   -2.100497 H        1 UNL1     0.0645
     67 H         -2.679567   1.581733   -2.909569 H        1 UNL1     0.0362
     68 H         -3.608266   -0.397124   -3.103523 H        1 UNL1     0.0741
     69 H         -3.070599   -2.485044   -1.561482 H        1 UNL1     0.0359
     70 H         -3.221838   -2.432971   0.668749 H        1 UNL1     0.0600
     71 H         -1.082277   -2.375328   1.02041 H        1 UNL1     0.0348
     72 H         -1.71615   -0.610902   2.575097 H        1 UNL1     0.0602
     73 H         -3.190045   3.269538   -0.271157 H        1 UNL1     0.0628
     74 H         -5.359962   1.782264   1.322614 H        1 UNL1     0.1022
     75 H         2.978277   3.938516   9.387834 H        1 UNL1     0.0279
     76 H         3.926291   4.24531   7.987675 H        1 UNL1     0.0279
     77 H         3.170035   5.583566   8.942895 H        1 UNL1     0.0279
     78 H         2.884556   6.331215   6.358829 H        1 UNL1     0.1553
     79 H         3.096316   4.750061   5.183526 H        1 UNL1     0.1484
     80 H         2.582637   3.833434   1.531756 H        1 UNL1     0.0317
     81 H         2.288718   5.450066   2.156287 H        1 UNL1     0.0317
     82 H         4.313245   5.311327   3.631329 H        1 UNL1     0.0428
     83 H         4.689533   5.06099   1.940932 H        1 UNL1     0.0428
     84 H         4.375354   1.573762   4.3583 H        1 UNL1     0.0428
     85 H         4.149839   3.088155   5.161343 H        1 UNL1     0.0428
     86 H         2.092634   1.823714   4.533692 H        1 UNL1     0.0317
     87 H         2.45596   1.863307   2.869727 H        1 UNL1     0.0317
     88 H         6.437619   2.624261   4.030504 H        1 UNL1     0.0429
     89 H         6.595773   2.84506   2.286236 H        1 UNL1     0.0429
     90 H         6.833022   4.818893   4.542457 H        1 UNL1     0.0308
     91 H         8.028637   4.556146   1.732097 H        1 UNL1     0.0233
     92 H         8.323227   5.965885   2.781548 H        1 UNL1     0.0233
     93 H         8.868888   4.375043   3.267429 H        1 UNL1     0.0233
     94 H         6.16885   6.689094   2.860137 H        1 UNL1     0.0233
     95 H         5.187291   5.419054   2.113231 H        1 UNL1     0.0233
     96 H         4.91178   5.871737   3.811219 H        1 UNL1     0.0233
     97 H         -5.595105   7.709938   3.759752 H        1 UNL1     0.0280
     98 H         -4.856521   9.0524   4.5901 H        1 UNL1     0.0280
     99 H         -4.583963   8.836067   2.835494 H        1 UNL1     0.0280
     100 H         -1.908578   9.819026   4.911959 H        1 UNL1     0.2922
     101 H         -2.63538   -0.662477   4.674404 H        1 UNL1     0.0236
     102 H         -1.341289   -0.806154   5.927698 H        1 UNL1     0.0236
     103 H         -1.337993   -1.803682   4.506281 H        1 UNL1     0.0236
     104 H         1.044967   -1.279079   3.107345 H        1 UNL1     0.2098
     105 H         0.386335   -1.631425   -0.447199 H        1 UNL1     0.0234
     106 H         -0.95181   -0.717029   -1.198428 H        1 UNL1     0.0234
     107 H         0.0   0.0   0.0 H        1 UNL1     0.0234
     108 H         -4.414343   -1.093342   1.530505 H        1 UNL1     0.2098
     109 H         -1.441662   1.508695   -0.176855 H        1 UNL1     0.0234
     110 H         -0.567801   1.439795   -1.740321 H        1 UNL1     0.0234
     111 H         -1.50686   2.830362   -1.323982 H        1 UNL1     0.0234
     112 H         -3.757335   -2.483284   -4.437427 H        1 UNL1     0.0342
     113 H         -3.80744   -0.700711   -4.678591 H        1 UNL1     0.0342
     114 H         -3.231525   -1.760672   -5.968077 H        1 UNL1     0.0342
     115 H         -5.260153   -2.75185   -1.370104 H        1 UNL1     0.0234
     116 H         -5.610217   -1.058426   -1.00878 H        1 UNL1     0.0234
     117 H         -5.201708   -1.623805   -2.64191 H        1 UNL1     0.0234
     118 H         -3.297751   6.396182   0.683102 H        1 UNL1     0.0309
     119 H         -2.353679   4.932062   0.266999 H        1 UNL1     0.0309
     120 H         -4.03116   5.107629   -0.199254 H        1 UNL1     0.0309
     121 H         -4.837649   -1.129512   -0.396964 H        1 UNL1     0.0524
     122 H         -3.870556   0.064086   0.478771 H        1 UNL1     0.0524
     123 H         -5.622963   -0.043169   0.780944 H        1 UNL1     0.0524
@<TRIPOS>BOND
     1     1     2    1
     2     1    42    1
     3     2     3    2
     4     3     4    1
     5     4     5    2
     6     5     7    1
     7     6    75    1
     8     6    76    1
     9     6    77    1
    10     7     9   am
    11     9    10    1
    12    10    11    2
    13    10    43    1
    14    11    14    1
    15    11    15    1
    16    12    13   ar
    17    12    27   ar
    18    12    43    1
    19    13    14    1
    20    13    30   ar
    21    14    17    2
    22    15    16    1
    23    16    17    1
    24    16    18    1
    25    16    22    1
    26    18    19    1
    27    19    20    1
    28    20    21    1
    29    21    22    1
    30    23    24    1
    31    23    88    1
    32    23    89    1
    33    24    25    1
    34    24    26    1
    35    24    90    1
    36    25    91    1
    37    25    92    1
    38    25    93    1
    39    26    94    1
    40    26    95    1
    41    26    96    1
    42    27    28   ar
    43    28    29   ar
    44    29    30   ar
    45    29    31    1
    46    30    33    1
    47    31    32    1
    48    32    33    1
    49    32    35    1
    50    34    97    1
    51    34    98    1
    52    34    99    1
    53    35    61    1
    54    36    37    1
    55    36    60    1
    56    37    38    1
    57    38    39    1
    58    39    40    1
    59    40    41    1
    60    41    42    1
    61    45   100    1
    62    47   101    1
    63    47   102    1
    64    47   103    1
    65    48   104    1
    66    49   105    1
    67    49   106    1
    68    49   107    1
    69    50   108    1
    70    51    59    1
    71    52   109    1
    72    52   110    1
    73    52   111    1
    74    53    54    1
    75    54    55    2
    76    54    56    1
    77    56   112    1
    78    56   113    1
    79    56   114    1
    80    57   115    1
    81    57   116    1
    82    57   117    1
    83    58   118    1
    84    58   119    1
    85    58   120    1
    86    59   121    1
    87    59   122    1
    88    59   123    1
    89    60    61    2
    90     1    47    1
    91     1    62    1
    92     2    63    1
    93     3    64    1
    94     4    65    1
    95     5     6    1
    96     7     8    2
    97     9    78    1
    98    15    79    1
    99    18    80    1
   100    18    81    1
   101    19    82    1
   102    19    83    1
   103    20    23    1
   104    21    84    1
   105    21    85    1
   106    22    86    1
   107    22    87    1
   108    27    45    1
   109    28    34    1
   110    32    58    1
   111    33    46    2
   112    36    51    1
   113    36    66    1
   114    37    52    1
   115    37    67    1
   116    38    53    1
   117    38    68    1
   118    42    48    1
   119    42    72    1
   120    43    44    2
   121    60    73    1
   122    61    74    1
   123    39    69    1
   124    39    57    1
   125    40    70    1
   126    40    50    1
   127    41    71    1
   128    41    49    1
