@<TRIPOS>MOLECULE
*****
 123 128 0 0 0
SMALL
GASTEIGER

@<TRIPOS>ATOM
     1 C         4.602269   -0.922662   2.824813 C.3        1 UNL1     0.0009
     2 C         6.315769   -1.628873   2.777707 C.2        1 UNL1     -0.0787
     3 C         7.244922   -2.692948   3.094672 C.2        1 UNL1     -0.0649
     4 C         8.867225   -2.830461   2.630367 C.2        1 UNL1     -0.0542
     5 C         9.953145   -3.723364   2.455494 C.2        1 UNL1     0.0115
     6 C         10.444785   -5.172076   2.725393 C.3        1 UNL1     -0.0348
     7 C         11.194555   -3.267934   1.545288 C.2        1 UNL1     0.2441
     8 O         12.256591   -2.881495   2.013551 O.2        1 UNL1     -0.2702
     9 N         11.074212   -3.588677   0.181912 N.am        1 UNL1     -0.2772
     10 C         10.421035   -2.5826   -0.492247 C.2        1 UNL1     0.1049
     11 C         9.101696   -2.606412   -0.437461 C.2        1 UNL1     0.0801
     12 C         10.401076   -0.102894   -0.820869 C.ar        1 UNL1     0.0753
     13 C         8.997341   -0.156606   -0.546548 C.ar        1 UNL1     0.0305
     14 C         8.279608   -1.427398   -0.475845 C.2        1 UNL1     0.0924
     15 N         8.272389   -3.571506   -0.004599 N.pl3        1 UNL1     -0.3170
     16 C         6.927325   -3.168527   -0.318711 C.3        1 UNL1     0.1275
     17 N         6.978081   -1.660225   -0.33181 N.2        1 UNL1     -0.2557
     18 C         6.651669   -3.595478   -1.757262 C.3        1 UNL1     0.0016
     19 C         6.903611   -5.09   -1.877762 C.3        1 UNL1     0.0026
     20 N         6.027989   -5.788521   -0.946966 N.3        1 UNL1     -0.3018
     21 C         6.176315   -5.399813   0.457055 C.3        1 UNL1     0.0026
     22 C         5.914412   -3.895954   0.555592 C.3        1 UNL1     0.0016
     23 C         5.970757   -7.216234   -1.189875 C.3        1 UNL1     0.0012
     24 C         5.214772   -7.510645   -2.495082 C.3        1 UNL1     -0.0339
     25 C         4.420746   -8.82394   -2.401087 C.3        1 UNL1     -0.0615
     26 C         4.316933   -6.338938   -2.85253 C.3        1 UNL1     -0.0615
     27 C         11.054209   1.113301   -1.006353 C.ar        1 UNL1     0.1347
     28 C         10.40446   2.334455   -0.980628 C.ar        1 UNL1     0.0342
     29 C         9.032185   2.260095   -0.66048 C.ar        1 UNL1     0.1435
     30 C         8.371878   1.051364   -0.436464 C.ar        1 UNL1     0.0774
     31 O         8.238068   3.352088   -0.704487 O.3        1 UNL1     -0.4436
     32 C         6.904858   2.827539   -0.795433 C.3        1 UNL1     0.3143
     33 C         6.990061   1.427427   -0.222162 C.2        1 UNL1     0.2504
     34 C         10.984483   3.651163   -1.416464 C.3        1 UNL1     -0.0327
     35 O         6.08403   3.593631   0.094846 O.2        1 UNL1     -0.4528
     36 C         2.607083   3.584331   -1.427927 C.3        1 UNL1     0.0854
     37 C         1.688173   2.35945   -1.805806 C.3        1 UNL1     0.0236
     38 C         0.227416   2.381022   -1.144393 C.3        1 UNL1     0.1131
     39 C         0.074529   2.602737   0.414369 C.3        1 UNL1     0.0200
     40 C         1.08185   1.811774   1.483068 C.3        1 UNL1     0.0661
     41 C         1.419503   0.149367   1.485362 C.3        1 UNL1     0.0091
     42 C         2.942123   -0.755022   1.964015 C.3        1 UNL1     0.0661
     43 C         11.121405   -1.389271   -0.990042 C.2        1 UNL1     0.2131
     44 O         12.17497   -1.496727   -1.591035 O.2        1 UNL1     -0.2851
     45 O         12.430082   1.080057   -1.223851 O.3        1 UNL1     -0.5056
     46 O         6.119115   0.777377   0.311449 O.2        1 UNL1     -0.2836
     47 C         4.271759   -0.40401   4.250206 C.3        1 UNL1     -0.0566
     48 O         2.225068   -1.753486   2.793483 O.3        1 UNL1     -0.3909
     49 C         0.94435   -0.446907   0.179153 C.3        1 UNL1     -0.0577
     50 O         2.271647   2.546751   1.687802 O.3        1 UNL1     -0.3910
     51 O         2.105856   4.446082   -0.431138 O.3        1 UNL1     -0.3753
     52 C         2.512076   1.039292   -1.958503 C.3        1 UNL1     -0.0564
     53 O         -0.73383   1.419501   -1.779853 O.3        1 UNL1     -0.4608
     54 C         -1.686856   0.692356   -1.115826 C.2        1 UNL1     0.3042
     55 O         -1.64183   -0.499965   -0.815523 O.2        1 UNL1     -0.2512
     56 C         -2.871927   1.507677   -0.682728 C.3        1 UNL1     0.0332
     57 C         -0.192274   4.161141   0.655965 C.3        1 UNL1     -0.0567
     58 C         6.575068   2.730057   -2.303169 C.3        1 UNL1     0.0210
     59 C         1.666738   5.718543   -0.904301 C.3        1 UNL1     0.0372
     60 C         3.99625   3.228863   -1.029158 C.2        1 UNL1     -0.0208
     61 C         4.743773   3.667784   -0.015599 C.2        1 UNL1     0.0882
     62 H         4.963188   -0.05898   2.253409 H        1 UNL1     0.0365
     63 H         6.863744   -0.803164   2.319016 H        1 UNL1     0.0576
     64 H         6.911201   -3.626767   3.552623 H        1 UNL1     0.0615
     65 H         9.118995   -1.831545   2.263948 H        1 UNL1     0.0622
     66 H         2.698919   4.158571   -2.36059 H        1 UNL1     0.0645
     67 H         1.449153   2.522224   -2.871139 H        1 UNL1     0.0362
     68 H         -0.171694   3.295218   -1.609667 H        1 UNL1     0.0741
     69 H         -0.906937   2.264916   0.719343 H        1 UNL1     0.0359
     70 H         0.508837   1.946358   2.420407 H        1 UNL1     0.0600
     71 H         0.636514   -0.205936   2.183678 H        1 UNL1     0.0348
     72 H         3.018523   0.23682   2.432765 H        1 UNL1     0.0602
     73 H         4.426536   2.609626   -1.776586 H        1 UNL1     0.0628
     74 H         4.364793   4.256849   0.820233 H        1 UNL1     0.1022
     75 H         10.245885   -5.462504   3.785169 H        1 UNL1     0.0279
     76 H         9.949327   -5.96419   2.168486 H        1 UNL1     0.0279
     77 H         11.539586   -5.265618   2.676789 H        1 UNL1     0.0279
     78 H         10.521009   -4.436709   0.077574 H        1 UNL1     0.1553
     79 H         8.54197   -4.532551   0.09861 H        1 UNL1     0.1484
     80 H         5.615797   -3.342014   -2.013173 H        1 UNL1     0.0317
     81 H         7.290735   -3.04694   -2.457514 H        1 UNL1     0.0317
     82 H         7.958486   -5.341226   -1.693273 H        1 UNL1     0.0428
     83 H         6.702914   -5.372875   -2.911567 H        1 UNL1     0.0428
     84 H         5.453483   -5.880103   1.123873 H        1 UNL1     0.0428
     85 H         7.15286   -5.698169   0.862838 H        1 UNL1     0.0428
     86 H         5.89983   -3.672822   1.6063 H        1 UNL1     0.0317
     87 H         4.889787   -3.672207   0.234381 H        1 UNL1     0.0317
     88 H         6.999189   -7.587067   -1.2904 H        1 UNL1     0.0429
     89 H         5.518857   -7.74716   -0.342127 H        1 UNL1     0.0429
     90 H         5.936081   -7.596727   -3.316371 H        1 UNL1     0.0308
     91 H         3.943066   -9.069007   -3.354432 H        1 UNL1     0.0233
     92 H         5.07243   -9.64894   -2.103948 H        1 UNL1     0.0233
     93 H         3.624063   -8.777354   -1.648783 H        1 UNL1     0.0233
     94 H         3.51426   -6.668378   -3.521127 H        1 UNL1     0.0233
     95 H         3.856441   -5.931572   -1.948118 H        1 UNL1     0.0233
     96 H         4.878052   -5.544   -3.351717 H        1 UNL1     0.0233
     97 H         10.405263   4.107697   -2.213528 H        1 UNL1     0.0280
     98 H         11.003643   4.385325   -0.60044 H        1 UNL1     0.0280
     99 H         12.013562   3.498575   -1.780893 H        1 UNL1     0.0280
     100 H         12.910937   0.553508   -0.609728 H        1 UNL1     0.2922
     101 H         4.322488   0.684486   4.26633 H        1 UNL1     0.0236
     102 H         4.892184   -0.853869   5.024598 H        1 UNL1     0.0236
     103 H         3.236304   -0.640344   4.547142 H        1 UNL1     0.0236
     104 H         2.203225   -2.592165   2.292373 H        1 UNL1     0.2098
     105 H         1.582965   -0.228222   -0.672997 H        1 UNL1     0.0234
     106 H         0.720611   -1.512839   0.219865 H        1 UNL1     0.0234
     107 H         -0.0   0.0   0.0 H        1 UNL1     0.0234
     108 H         2.909475   1.9503   2.125055 H        1 UNL1     0.2098
     109 H         3.268804   1.110674   -2.752214 H        1 UNL1     0.0234
     110 H         2.988555   0.718994   -1.0257 H        1 UNL1     0.0234
     111 H         1.870807   0.191646   -2.234579 H        1 UNL1     0.0234
     112 H         -3.582068   0.87424   -0.142541 H        1 UNL1     0.0342
     113 H         -2.579852   2.367597   -0.081834 H        1 UNL1     0.0342
     114 H         -3.375413   1.886207   -1.582939 H        1 UNL1     0.0342
     115 H         -0.848638   4.333978   1.519968 H        1 UNL1     0.0234
     116 H         0.715233   4.748199   0.81038 H        1 UNL1     0.0234
     117 H         -0.773279   4.638403   -0.151869 H        1 UNL1     0.0234
     118 H         5.811949   3.466968   -2.609139 H        1 UNL1     0.0309
     119 H         7.455977   2.839783   -2.943607 H        1 UNL1     0.0309
     120 H         6.121631   1.770028   -2.573065 H        1 UNL1     0.0309
     121 H         1.746733   6.423403   -0.07718 H        1 UNL1     0.0524
     122 H         2.295449   6.098876   -1.726558 H        1 UNL1     0.0524
     123 H         0.637558   5.657546   -1.246591 H        1 UNL1     0.0524
@<TRIPOS>BOND
     1     1     2    1
     2     1    42    1
     3     2     3    2
     4     3     4    1
     5     4     5    2
     6     5     7    1
     7     6    75    1
     8     6    76    1
     9     6    77    1
    10     7     9   am
    11     9    10    1
    12    10    11    2
    13    10    43    1
    14    11    14    1
    15    11    15    1
    16    12    13   ar
    17    12    27   ar
    18    12    43    1
    19    13    14    1
    20    13    30   ar
    21    14    17    2
    22    15    16    1
    23    16    17    1
    24    16    18    1
    25    16    22    1
    26    18    19    1
    27    19    20    1
    28    20    21    1
    29    21    22    1
    30    23    24    1
    31    23    88    1
    32    23    89    1
    33    24    25    1
    34    24    26    1
    35    24    90    1
    36    25    91    1
    37    25    92    1
    38    25    93    1
    39    26    94    1
    40    26    95    1
    41    26    96    1
    42    27    28   ar
    43    28    29   ar
    44    29    30   ar
    45    29    31    1
    46    30    33    1
    47    31    32    1
    48    32    33    1
    49    32    35    1
    50    34    97    1
    51    34    98    1
    52    34    99    1
    53    35    61    1
    54    36    37    1
    55    36    60    1
    56    37    38    1
    57    38    39    1
    58    39    40    1
    59    40    41    1
    60    41    42    1
    61    45   100    1
    62    47   101    1
    63    47   102    1
    64    47   103    1
    65    48   104    1
    66    49   105    1
    67    49   106    1
    68    49   107    1
    69    50   108    1
    70    51    59    1
    71    52   109    1
    72    52   110    1
    73    52   111    1
    74    53    54    1
    75    54    55    2
    76    54    56    1
    77    56   112    1
    78    56   113    1
    79    56   114    1
    80    57   115    1
    81    57   116    1
    82    57   117    1
    83    58   118    1
    84    58   119    1
    85    58   120    1
    86    59   121    1
    87    59   122    1
    88    59   123    1
    89    60    61    2
    90     1    47    1
    91     1    62    1
    92     2    63    1
    93     3    64    1
    94     4    65    1
    95     5     6    1
    96     7     8    2
    97     9    78    1
    98    15    79    1
    99    18    80    1
   100    18    81    1
   101    19    82    1
   102    19    83    1
   103    20    23    1
   104    21    84    1
   105    21    85    1
   106    22    86    1
   107    22    87    1
   108    27    45    1
   109    28    34    1
   110    32    58    1
   111    33    46    2
   112    36    51    1
   113    36    66    1
   114    37    52    1
   115    37    67    1
   116    38    53    1
   117    38    68    1
   118    42    48    1
   119    42    72    1
   120    43    44    2
   121    60    73    1
   122    61    74    1
   123    39    69    1
   124    39    57    1
   125    40    70    1
   126    40    50    1
   127    41    71    1
   128    41    49    1
