@<TRIPOS>MOLECULE
*****
 123 128 0 0 0
SMALL
GASTEIGER

@<TRIPOS>ATOM
     1 C         5.169083   1.741938   0.494832 C.3        1 UNL1     0.0009
     2 C         6.607825   2.545205   -0.354769 C.2        1 UNL1     -0.0787
     3 C         7.890101   2.444533   -1.01936 C.2        1 UNL1     -0.0649
     4 C         8.770236   3.677793   -1.774866 C.2        1 UNL1     -0.0542
     5 C         9.791538   3.968241   -2.712767 C.2        1 UNL1     0.0115
     6 C         10.919427   3.34046   -3.577106 C.3        1 UNL1     -0.0348
     7 C         9.889852   5.451011   -3.319987 C.2        1 UNL1     0.2441
     8 O         10.714779   6.271493   -2.942057 O.2        1 UNL1     -0.2702
     9 N         9.140963   5.658594   -4.491408 N.am        1 UNL1     -0.2772
     10 C         7.858628   6.047572   -4.178945 C.2        1 UNL1     0.1049
     11 C         7.010984   5.077721   -3.887205 C.2        1 UNL1     0.0801
     12 C         6.561714   7.657134   -2.770166 C.ar        1 UNL1     0.0753
     13 C         5.800407   6.530721   -2.322714 C.ar        1 UNL1     0.0305
     14 C         5.915715   5.224481   -2.967301 C.2        1 UNL1     0.0924
     15 N         7.131532   3.748456   -4.045478 N.pl3        1 UNL1     -0.3170
     16 C         5.860415   3.151564   -3.732054 C.3        1 UNL1     0.1275
     17 N         5.224774   4.10838   -2.753183 N.2        1 UNL1     -0.2557
     18 C         5.008733   3.21137   -4.996476 C.3        1 UNL1     0.0016
     19 C         5.76343   2.525419   -6.124081 C.3        1 UNL1     0.0026
     20 N         6.030957   1.147078   -5.737255 N.3        1 UNL1     -0.3018
     21 C         6.793   0.986084   -4.497198 C.3        1 UNL1     0.0026
     22 C         6.014456   1.678499   -3.377231 C.3        1 UNL1     0.0016
     23 C         6.475039   0.326207   -6.84613 C.3        1 UNL1     0.0012
     24 C         5.320011   0.078121   -7.829044 C.3        1 UNL1     -0.0339
     25 C         5.348214   1.080628   -8.99448 C.3        1 UNL1     -0.0615
     26 C         5.357442   -1.356916   -8.325075 C.3        1 UNL1     -0.0615
     27 C         6.358704   8.925457   -2.231405 C.ar        1 UNL1     0.1347
     28 C         5.399285   9.197114   -1.27236 C.ar        1 UNL1     0.0342
     29 C         4.695452   8.064079   -0.811909 C.ar        1 UNL1     0.1435
     30 C         4.913192   6.781417   -1.316475 C.ar        1 UNL1     0.0774
     31 O         3.653932   8.179834   0.040642 O.3        1 UNL1     -0.4436
     32 C         2.930328   6.948138   -0.101461 C.3        1 UNL1     0.3143
     33 C         3.942422   5.953064   -0.632221 C.2        1 UNL1     0.2504
     34 C         4.954345   10.564196   -0.832798 C.3        1 UNL1     -0.0327
     35 O         2.567862   6.512751   1.214711 O.2        1 UNL1     -0.4528
     36 C         -0.678055   4.585736   0.8163 C.3        1 UNL1     0.0854
     37 C         -0.984701   3.325173   -0.080622 C.3        1 UNL1     0.0236
     38 C         -1.58801   2.065557   0.707496 C.3        1 UNL1     0.1131
     39 C         -0.864224   1.534128   2.009797 C.3        1 UNL1     0.0200
     40 C         0.796689   1.385847   2.052435 C.3        1 UNL1     0.0661
     41 C         1.755757   0.614787   0.884846 C.3        1 UNL1     0.0091
     42 C         3.464415   0.9742   0.322074 C.3        1 UNL1     0.0661
     43 C         7.512347   7.447242   -3.890212 C.2        1 UNL1     0.2131
     44 O         7.914322   8.344261   -4.608898 O.2        1 UNL1     -0.2851
     45 O         7.173072   9.958963   -2.689781 O.3        1 UNL1     -0.5056
     46 O         3.956303   4.749576   -0.500772 O.2        1 UNL1     -0.2836
     47 C         5.563531   1.312593   1.933601 C.3        1 UNL1     -0.0566
     48 O         3.910565   -0.437603   0.405008 O.3        1 UNL1     -0.3909
     49 C         0.922219   0.382901   -0.355693 C.3        1 UNL1     -0.0577
     50 O         1.398582   2.602927   2.445073 O.3        1 UNL1     -0.3910
     51 O         -0.803618   4.397035   2.207723 O.3        1 UNL1     -0.3753
     52 C         0.060446   3.162331   -1.232186 C.3        1 UNL1     -0.0564
     53 O         -2.191589   1.02708   -0.192273 O.3        1 UNL1     -0.4608
     54 C         -2.416352   -0.282354   0.143576 C.2        1 UNL1     0.3042
     55 O         -1.845462   -1.276539   -0.303101 O.2        1 UNL1     -0.2512
     56 C         -3.446922   -0.458155   1.22234 C.3        1 UNL1     0.0332
     57 C         -1.585189   2.205016   3.270072 C.3        1 UNL1     -0.0567
     58 C         1.856445   7.194415   -1.186658 C.3        1 UNL1     0.0210
     59 C         -1.146399   5.570652   2.943244 C.3        1 UNL1     0.0372
     60 C         0.652177   5.212482   0.586443 C.2        1 UNL1     -0.0208
     61 C         1.565112   5.646678   1.456368 C.2        1 UNL1     0.0882
     62 H         4.694729   2.726949   0.581159 H        1 UNL1     0.0365
     63 H         6.343244   3.599504   -0.25027 H        1 UNL1     0.0576
     64 H         8.346329   1.476801   -1.239491 H        1 UNL1     0.0615
     65 H         8.284389   4.594191   -1.42896 H        1 UNL1     0.0622
     66 H         -1.421204   5.333329   0.505045 H        1 UNL1     0.0645
     67 H         -1.849226   3.635637   -0.692806 H        1 UNL1     0.0362
     68 H         -2.534643   2.504204   1.058204 H        1 UNL1     0.0741
     69 H         -1.197591   0.523692   2.205485 H        1 UNL1     0.0359
     70 H         0.906635   0.725823   2.934104 H        1 UNL1     0.0600
     71 H         1.797286   -0.406211   1.312392 H        1 UNL1     0.0348
     72 H         3.358535   1.463127   1.301388 H        1 UNL1     0.0602
     73 H         0.771259   5.408956   -0.450121 H        1 UNL1     0.0628
     74 H         1.54633   5.436642   2.526307 H        1 UNL1     0.1022
     75 H         10.961941   2.235195   -3.423435 H        1 UNL1     0.0279
     76 H         10.806825   3.422835   -4.65581 H        1 UNL1     0.0279
     77 H         11.924738   3.643674   -3.249824 H        1 UNL1     0.0279
     78 H         9.077948   4.788456   -5.01578 H        1 UNL1     0.1553
     79 H         7.796599   3.319013   -4.662079 H        1 UNL1     0.1484
     80 H         4.046475   2.722146   -4.802862 H        1 UNL1     0.0317
     81 H         4.784075   4.248347   -5.268246 H        1 UNL1     0.0317
     82 H         6.69518   3.055032   -6.371595 H        1 UNL1     0.0428
     83 H         5.139106   2.581103   -7.016365 H        1 UNL1     0.0428
     84 H         6.911328   -0.056893   -4.187345 H        1 UNL1     0.0428
     85 H         7.823789   1.352343   -4.600371 H        1 UNL1     0.0428
     86 H         6.529712   1.427787   -2.468582 H        1 UNL1     0.0317
     87 H         5.034114   1.202564   -3.252683 H        1 UNL1     0.0317
     88 H         7.272438   0.866381   -7.373065 H        1 UNL1     0.0429
     89 H         6.905769   -0.620087   -6.494315 H        1 UNL1     0.0429
     90 H         4.36689   0.186715   -7.298025 H        1 UNL1     0.0308
     91 H         6.297505   1.033836   -9.536476 H        1 UNL1     0.0233
     92 H         4.528187   0.887502   -9.690084 H        1 UNL1     0.0233
     93 H         5.225307   2.116897   -8.657024 H        1 UNL1     0.0233
     94 H         4.661638   -1.485807   -9.161184 H        1 UNL1     0.0233
     95 H         6.3617   -1.603064   -8.681219 H        1 UNL1     0.0233
     96 H         5.081247   -2.05985   -7.534146 H        1 UNL1     0.0233
     97 H         4.160314   10.516156   -0.093584 H        1 UNL1     0.0280
     98 H         5.767657   11.133151   -0.363682 H        1 UNL1     0.0280
     99 H         4.582324   11.128859   -1.703345 H        1 UNL1     0.0280
     100 H         6.707553   10.709904   -3.013819 H        1 UNL1     0.2922
     101 H         4.699581   0.880676   2.438273 H        1 UNL1     0.0236
     102 H         6.015173   2.117515   2.512482 H        1 UNL1     0.0236
     103 H         6.318444   0.508666   1.933579 H        1 UNL1     0.0236
     104 H         4.329169   -0.563794   1.278975 H        1 UNL1     0.2098
     105 H         0.710274   1.281978   -0.928887 H        1 UNL1     0.0234
     106 H         1.291675   -0.405088   -1.011821 H        1 UNL1     0.0234
     107 H         0.0   -0.0   0.0 H        1 UNL1     0.0234
     108 H         1.201699   3.261114   1.750958 H        1 UNL1     0.2098
     109 H         1.084778   3.047368   -0.851082 H        1 UNL1     0.0234
     110 H         -0.172811   2.335232   -1.911334 H        1 UNL1     0.0234
     111 H         0.083643   4.044737   -1.885461 H        1 UNL1     0.0234
     112 H         -3.571963   -1.521576   1.447833 H        1 UNL1     0.0342
     113 H         -3.199568   0.105296   2.120773 H        1 UNL1     0.0342
     114 H         -4.406587   -0.078761   0.845157 H        1 UNL1     0.0342
     115 H         -2.649838   1.938387   3.321262 H        1 UNL1     0.0234
     116 H         -1.13487   1.944269   4.229901 H        1 UNL1     0.0234
     117 H         -1.643779   3.305375   3.209094 H        1 UNL1     0.0234
     118 H         0.955843   7.683052   -0.775372 H        1 UNL1     0.0309
     119 H         2.227487   7.781302   -2.032881 H        1 UNL1     0.0309
     120 H         1.466676   6.262861   -1.611384 H        1 UNL1     0.0309
     121 H         -0.340857   6.291794   2.807552 H        1 UNL1     0.0524
     122 H         -2.075483   6.037836   2.576394 H        1 UNL1     0.0524
     123 H         -1.263347   5.33315   3.996814 H        1 UNL1     0.0524
@<TRIPOS>BOND
     1     1     2    1
     2     1    42    1
     3     2     3    2
     4     3     4    1
     5     4     5    2
     6     5     7    1
     7     6    75    1
     8     6    76    1
     9     6    77    1
    10     7     9   am
    11     9    10    1
    12    10    11    2
    13    10    43    1
    14    11    14    1
    15    11    15    1
    16    12    13   ar
    17    12    27   ar
    18    12    43    1
    19    13    14    1
    20    13    30   ar
    21    14    17    2
    22    15    16    1
    23    16    17    1
    24    16    18    1
    25    16    22    1
    26    18    19    1
    27    19    20    1
    28    20    21    1
    29    21    22    1
    30    23    24    1
    31    23    88    1
    32    23    89    1
    33    24    25    1
    34    24    26    1
    35    24    90    1
    36    25    91    1
    37    25    92    1
    38    25    93    1
    39    26    94    1
    40    26    95    1
    41    26    96    1
    42    27    28   ar
    43    28    29   ar
    44    29    30   ar
    45    29    31    1
    46    30    33    1
    47    31    32    1
    48    32    33    1
    49    32    35    1
    50    34    97    1
    51    34    98    1
    52    34    99    1
    53    35    61    1
    54    36    37    1
    55    36    60    1
    56    37    38    1
    57    38    39    1
    58    39    40    1
    59    40    41    1
    60    41    42    1
    61    45   100    1
    62    47   101    1
    63    47   102    1
    64    47   103    1
    65    48   104    1
    66    49   105    1
    67    49   106    1
    68    49   107    1
    69    50   108    1
    70    51    59    1
    71    52   109    1
    72    52   110    1
    73    52   111    1
    74    53    54    1
    75    54    55    2
    76    54    56    1
    77    56   112    1
    78    56   113    1
    79    56   114    1
    80    57   115    1
    81    57   116    1
    82    57   117    1
    83    58   118    1
    84    58   119    1
    85    58   120    1
    86    59   121    1
    87    59   122    1
    88    59   123    1
    89    60    61    2
    90     1    47    1
    91     1    62    1
    92     2    63    1
    93     3    64    1
    94     4    65    1
    95     5     6    1
    96     7     8    2
    97     9    78    1
    98    15    79    1
    99    18    80    1
   100    18    81    1
   101    19    82    1
   102    19    83    1
   103    20    23    1
   104    21    84    1
   105    21    85    1
   106    22    86    1
   107    22    87    1
   108    27    45    1
   109    28    34    1
   110    32    58    1
   111    33    46    2
   112    36    51    1
   113    36    66    1
   114    37    52    1
   115    37    67    1
   116    38    53    1
   117    38    68    1
   118    42    48    1
   119    42    72    1
   120    43    44    2
   121    60    73    1
   122    61    74    1
   123    39    69    1
   124    39    57    1
   125    40    70    1
   126    40    50    1
   127    41    71    1
   128    41    49    1
