@<TRIPOS>MOLECULE
*****
 123 128 0 0 0
SMALL
GASTEIGER

@<TRIPOS>ATOM
     1 C         5.16755   1.747165   0.493064 C.3        1 UNL1     0.0009
     2 C         6.604655   2.553167   -0.356717 C.2        1 UNL1     -0.0787
     3 C         7.886655   2.454852   -1.022191 C.2        1 UNL1     -0.0649
     4 C         8.76462   3.689993   -1.777149 C.2        1 UNL1     -0.0542
     5 C         9.784939   3.982679   -2.715426 C.2        1 UNL1     0.0115
     6 C         10.913155   3.357219   -3.581019 C.3        1 UNL1     -0.0348
     7 C         9.880831   5.46612   -3.321392 C.2        1 UNL1     0.2441
     8 O         10.704861   6.287403   -2.943247 O.2        1 UNL1     -0.2702
     9 N         9.13093   5.673707   -4.492165 N.am        1 UNL1     -0.2772
     10 C         7.848254   6.060639   -4.178562 C.2        1 UNL1     0.1049
     11 C         7.002129   5.089363   -3.887157 C.2        1 UNL1     0.0801
     12 C         6.549998   7.667164   -2.767554 C.ar        1 UNL1     0.0753
     13 C         5.790522   6.539307   -2.320629 C.ar        1 UNL1     0.0305
     14 C         5.907231   5.233798   -2.966444 C.2        1 UNL1     0.0924
     15 N         7.124411   3.760406   -4.046682 N.pl3        1 UNL1     -0.3170
     16 C         5.854313   3.161484   -3.732999 C.3        1 UNL1     0.1275
     17 N         5.217962   4.116556   -2.752887 N.2        1 UNL1     -0.2557
     18 C         5.001764   3.221235   -4.99684 C.3        1 UNL1     0.0016
     19 C         5.756705   2.537324   -6.12552 C.3        1 UNL1     0.0026
     20 N         6.026373   1.159012   -5.74008 N.3        1 UNL1     -0.3018
     21 C         6.789407   0.997971   -4.50064 C.3        1 UNL1     0.0026
     22 C         6.010605   1.68832   -3.379577 C.3        1 UNL1     0.0016
     23 C         6.470897   0.339735   -6.849958 C.3        1 UNL1     0.0012
     24 C         5.315601   0.090927   -7.832375 C.3        1 UNL1     -0.0339
     25 C         5.3417   1.094503   -8.996939 C.3        1 UNL1     -0.0615
     26 C         5.354703   -1.343618   -8.3297 C.3        1 UNL1     -0.0615
     27 C         6.345574   8.934728   -2.227544 C.ar        1 UNL1     0.1347
     28 C         5.386378   9.204213   -1.267664 C.ar        1 UNL1     0.0342
     29 C         4.684394   8.069801   -0.807781 C.ar        1 UNL1     0.1435
     30 C         4.903588   6.787887   -1.313619 C.ar        1 UNL1     0.0774
     31 O         3.643245   8.183366   0.045517 O.3        1 UNL1     -0.4436
     32 C         2.921251   6.950799   -0.097229 C.3        1 UNL1     0.3143
     33 C         3.934386   5.957591   -0.629497 C.2        1 UNL1     0.2504
     34 C         4.939827   10.570291   -0.826615 C.3        1 UNL1     -0.0327
     35 O         2.560202   6.513747   1.218781 O.2        1 UNL1     -0.4528
     36 C         -0.683301   4.582612   0.820676 C.3        1 UNL1     0.0854
     37 C         -0.988767   3.322421   -0.077173 C.3        1 UNL1     0.0236
     38 C         -1.589849   2.061278   0.710202 C.3        1 UNL1     0.1131
     39 C         -0.864524   1.529694   2.011583 C.3        1 UNL1     0.0200
     40 C         0.796619   1.383666   2.053061 C.3        1 UNL1     0.0661
     41 C         1.756024   0.614964   0.884194 C.3        1 UNL1     0.0091
     42 C         3.463835   0.97723   0.320682 C.3        1 UNL1     0.0661
     43 C         7.500224   7.459574   -3.888374 C.2        1 UNL1     0.2131
     44 O         7.900515   8.357783   -4.606515 O.2        1 UNL1     -0.2851
     45 O         7.158232   9.969761   -2.685508 O.3        1 UNL1     -0.5056
     46 O         3.950007   4.754008   -0.499123 O.2        1 UNL1     -0.2836
     47 C         5.563482   1.317091   1.931207 C.3        1 UNL1     -0.0566
     48 O         3.911982   -0.434029   0.402089 O.3        1 UNL1     -0.3909
     49 C         0.922036   0.383027   -0.356033 C.3        1 UNL1     -0.0577
     50 O         1.397078   2.601227   2.446403 O.3        1 UNL1     -0.3910
     51 O         -0.807741   4.392506   2.212008 O.3        1 UNL1     -0.3753
     52 C         0.055888   3.16204   -1.229528 C.3        1 UNL1     -0.0564
     53 O         -2.192555   1.022766   -0.190112 O.3        1 UNL1     -0.4608
     54 C         -2.414914   -0.287376   0.144572 C.2        1 UNL1     0.3042
     55 O         -1.842693   -1.280163   -0.303507 O.2        1 UNL1     -0.2512
     56 C         -3.444433   -0.465971   1.223882 C.3        1 UNL1     0.0332
     57 C         -1.58563   2.198472   3.272898 C.3        1 UNL1     -0.0567
     58 C         1.846356   7.196556   -1.181541 C.3        1 UNL1     0.0210
     59 C         -1.151682   5.564997   2.948781 C.3        1 UNL1     0.0372
     60 C         0.645922   5.211395   0.59055 C.2        1 UNL1     -0.0208
     61 C         1.558798   5.646079   1.460292 C.2        1 UNL1     0.0882
     62 H         4.691892   2.731444   0.580557 H        1 UNL1     0.0365
     63 H         6.338686   3.607007   -0.25112 H        1 UNL1     0.0576
     64 H         8.344081   1.487945   -1.243462 H        1 UNL1     0.0615
     65 H         8.277726   4.605413   -1.430131 H        1 UNL1     0.0622
     66 H         -1.427674   5.329455   0.510543 H        1 UNL1     0.0645
     67 H         -1.854099   3.632235   -0.688545 H        1 UNL1     0.0362
     68 H         -2.536868   2.498308   1.061886 H        1 UNL1     0.0741
     69 H         -1.196376   0.518627   2.206582 H        1 UNL1     0.0359
     70 H         0.908022   0.723014   2.934076 H        1 UNL1     0.0600
     71 H         1.799226   -0.406354   1.31081 H        1 UNL1     0.0348
     72 H         3.357889   1.465144   1.300494 H        1 UNL1     0.0602
     73 H         0.764089   5.40895   -0.445914 H        1 UNL1     0.0628
     74 H         1.54097   5.43507   2.530056 H        1 UNL1     0.1022
     75 H         10.957288   2.251878   -3.428354 H        1 UNL1     0.0279
     76 H         10.799769   3.440393   -4.65958 H        1 UNL1     0.0279
     77 H         11.91825   3.661529   -3.254092 H        1 UNL1     0.0279
     78 H         9.068789   4.803947   -5.017268 H        1 UNL1     0.1553
     79 H         7.789686   3.332426   -4.664076 H        1 UNL1     0.1484
     80 H         4.040302   2.730514   -4.803062 H        1 UNL1     0.0317
     81 H         4.775509   4.258141   -5.267552 H        1 UNL1     0.0317
     82 H         6.687571   3.068439   -6.373142 H        1 UNL1     0.0428
     83 H         5.131752   2.592936   -7.017367 H        1 UNL1     0.0428
     84 H         6.909364   -0.045116   -4.191785 H        1 UNL1     0.0428
     85 H         7.819626   1.365742   -4.604127 H        1 UNL1     0.0428
     86 H         6.52677   1.437514   -2.47147 H        1 UNL1     0.0317
     87 H         5.030997   1.210923   -3.254844 H        1 UNL1     0.0317
     88 H         7.267224   0.881474   -7.376909 H        1 UNL1     0.0429
     89 H         6.903149   -0.606275   -6.499249 H        1 UNL1     0.0429
     90 H         4.362662   0.197736   -7.30067 H        1 UNL1     0.0308
     91 H         6.291904   1.051678   -9.537661 H        1 UNL1     0.0233
     92 H         4.523353   0.898922   -9.693837 H        1 UNL1     0.0233
     93 H         5.21449   2.130028   -8.658795 H        1 UNL1     0.0233
     94 H         4.658558   -1.472727   -9.165492 H        1 UNL1     0.0233
     95 H         6.359078   -1.588065   -8.686685 H        1 UNL1     0.0233
     96 H         5.079969   -2.047632   -7.539223 H        1 UNL1     0.0233
     97 H         4.146322   10.520501   -0.086952 H        1 UNL1     0.0280
     98 H         5.752645   11.139951   -0.357499 H        1 UNL1     0.0280
     99 H         4.566487   11.13521   -1.696431 H        1 UNL1     0.0280
     100 H         6.691477   10.720347   -3.008592 H        1 UNL1     0.2922
     101 H         4.700442   0.883536   2.436032 H        1 UNL1     0.0236
     102 H         6.014374   2.122122   2.510521 H        1 UNL1     0.0236
     103 H         6.319503   0.514206   1.930004 H        1 UNL1     0.0236
     104 H         4.331302   -0.560417   1.275684 H        1 UNL1     0.2098
     105 H         0.709762   1.282101   -0.929109 H        1 UNL1     0.0234
     106 H         1.291334   -0.404891   -1.012335 H        1 UNL1     0.0234
     107 H         0.0   -0.0   0.0 H        1 UNL1     0.0234
     108 H         1.198857   3.259756   1.752994 H        1 UNL1     0.2098
     109 H         1.080614   3.048153   -0.849161 H        1 UNL1     0.0234
     110 H         -0.17665   2.335222   -1.909264 H        1 UNL1     0.0234
     111 H         0.077463   4.045055   -1.882036 H        1 UNL1     0.0234
     112 H         -3.567555   -1.529824   1.44839 H        1 UNL1     0.0342
     113 H         -3.19738   0.096983   2.122709 H        1 UNL1     0.0342
     114 H         -4.40499   -0.087786   0.847755 H        1 UNL1     0.0342
     115 H         -2.655331   1.950487   3.310707 H        1 UNL1     0.0234
     116 H         -1.149446   1.918284   4.233777 H        1 UNL1     0.0234
     117 H         -1.623906   3.300354   3.224611 H        1 UNL1     0.0234
     118 H         0.945336   7.683586   -0.769264 H        1 UNL1     0.0309
     119 H         2.216063   7.784702   -2.027474 H        1 UNL1     0.0309
     120 H         1.457608   6.264841   -1.606851 H        1 UNL1     0.0309
     121 H         -0.347219   6.28737   2.813229 H        1 UNL1     0.0524
     122 H         -2.081637   6.031225   2.582921 H        1 UNL1     0.0524
     123 H         -1.267648   5.326402   4.002212 H        1 UNL1     0.0524
@<TRIPOS>BOND
     1     1     2    1
     2     1    42    1
     3     2     3    2
     4     3     4    1
     5     4     5    2
     6     5     7    1
     7     6    75    1
     8     6    76    1
     9     6    77    1
    10     7     9   am
    11     9    10    1
    12    10    11    2
    13    10    43    1
    14    11    14    1
    15    11    15    1
    16    12    13   ar
    17    12    27   ar
    18    12    43    1
    19    13    14    1
    20    13    30   ar
    21    14    17    2
    22    15    16    1
    23    16    17    1
    24    16    18    1
    25    16    22    1
    26    18    19    1
    27    19    20    1
    28    20    21    1
    29    21    22    1
    30    23    24    1
    31    23    88    1
    32    23    89    1
    33    24    25    1
    34    24    26    1
    35    24    90    1
    36    25    91    1
    37    25    92    1
    38    25    93    1
    39    26    94    1
    40    26    95    1
    41    26    96    1
    42    27    28   ar
    43    28    29   ar
    44    29    30   ar
    45    29    31    1
    46    30    33    1
    47    31    32    1
    48    32    33    1
    49    32    35    1
    50    34    97    1
    51    34    98    1
    52    34    99    1
    53    35    61    1
    54    36    37    1
    55    36    60    1
    56    37    38    1
    57    38    39    1
    58    39    40    1
    59    40    41    1
    60    41    42    1
    61    45   100    1
    62    47   101    1
    63    47   102    1
    64    47   103    1
    65    48   104    1
    66    49   105    1
    67    49   106    1
    68    49   107    1
    69    50   108    1
    70    51    59    1
    71    52   109    1
    72    52   110    1
    73    52   111    1
    74    53    54    1
    75    54    55    2
    76    54    56    1
    77    56   112    1
    78    56   113    1
    79    56   114    1
    80    57   115    1
    81    57   116    1
    82    57   117    1
    83    58   118    1
    84    58   119    1
    85    58   120    1
    86    59   121    1
    87    59   122    1
    88    59   123    1
    89    60    61    2
    90     1    47    1
    91     1    62    1
    92     2    63    1
    93     3    64    1
    94     4    65    1
    95     5     6    1
    96     7     8    2
    97     9    78    1
    98    15    79    1
    99    18    80    1
   100    18    81    1
   101    19    82    1
   102    19    83    1
   103    20    23    1
   104    21    84    1
   105    21    85    1
   106    22    86    1
   107    22    87    1
   108    27    45    1
   109    28    34    1
   110    32    58    1
   111    33    46    2
   112    36    51    1
   113    36    66    1
   114    37    52    1
   115    37    67    1
   116    38    53    1
   117    38    68    1
   118    42    48    1
   119    42    72    1
   120    43    44    2
   121    60    73    1
   122    61    74    1
   123    39    69    1
   124    39    57    1
   125    40    70    1
   126    40    50    1
   127    41    71    1
   128    41    49    1
