@<TRIPOS>MOLECULE
*****
 123 128 0 0 0
SMALL
GASTEIGER

@<TRIPOS>ATOM
     1 C         1.058359   4.075738   3.147044 C.3        1 UNL1     0.0009
     2 C         0.204731   5.226704   4.323323 C.2        1 UNL1     -0.0787
     3 C         -0.241815   6.557856   4.676418 C.2        1 UNL1     -0.0649
     4 C         -1.194001   7.019637   5.997954 C.2        1 UNL1     -0.0542
     5 C         -2.041572   8.026139   6.522982 C.2        1 UNL1     0.0115
     6 C         -2.551711   9.477598   6.307693 C.3        1 UNL1     -0.0348
     7 C         -3.018387   7.660494   7.74328 C.2        1 UNL1     0.2441
     8 O         -2.783104   7.976089   8.90154 O.2        1 UNL1     -0.2702
     9 N         -4.284902   7.184608   7.361673 N.am        1 UNL1     -0.2772
     10 C         -4.253702   5.819551   7.191477 C.2        1 UNL1     0.1049
     11 C         -3.812321   5.38854   6.02373 C.2        1 UNL1     0.0801
     12 C         -3.517416   3.699248   8.295803 C.ar        1 UNL1     0.0753
     13 C         -2.873625   3.371396   7.060224 C.ar        1 UNL1     0.0305
     14 C         -3.112065   4.145647   5.844192 C.2        1 UNL1     0.0924
     15 N         -3.580321   6.064053   4.88514 N.pl3        1 UNL1     -0.3170
     16 C         -3.27397   5.10327   3.858836 C.3        1 UNL1     0.1275
     17 N         -2.684757   3.930086   4.603277 N.2        1 UNL1     -0.2557
     18 C         -4.600947   4.616911   3.284128 C.3        1 UNL1     0.0016
     19 C         -5.392102   5.821697   2.800235 C.3        1 UNL1     0.0026
     20 N         -4.608873   6.520967   1.790976 N.3        1 UNL1     -0.3018
     21 C         -3.288217   6.973981   2.232583 C.3        1 UNL1     0.0026
     22 C         -2.509085   5.747231   2.710005 C.3        1 UNL1     0.0016
     23 C         -5.383329   7.499992   1.054518 C.3        1 UNL1     0.0012
     24 C         -6.332497   6.803482   0.066737 C.3        1 UNL1     -0.0339
     25 C         -6.746095   7.746079   -1.075412 C.3        1 UNL1     -0.0615
     26 C         -5.692186   5.531823   -0.462098 C.3        1 UNL1     -0.0615
     27 C         -3.380194   2.88691   9.418921 C.ar        1 UNL1     0.1347
     28 C         -2.660372   1.705427   9.416676 C.ar        1 UNL1     0.0342
     29 C         -1.99524   1.428178   8.203458 C.ar        1 UNL1     0.1435
     30 C         -2.094084   2.251399   7.081069 C.ar        1 UNL1     0.0774
     31 O         -1.343925   0.260946   8.007587 O.3        1 UNL1     -0.4436
     32 C         -1.228122   0.145163   6.581384 C.3        1 UNL1     0.3143
     33 C         -1.333086   1.563704   6.05895 C.2        1 UNL1     0.2504
     34 C         -2.674989   0.662015   10.498885 C.3        1 UNL1     -0.0327
     35 O         0.101662   -0.30673   6.297272 O.2        1 UNL1     -0.4528
     36 C         -0.146892   -2.321422   3.089886 C.3        1 UNL1     0.0854
     37 C         -0.690713   -1.881172   1.676394 C.3        1 UNL1     0.0236
     38 C         0.334147   -2.094496   0.461528 C.3        1 UNL1     0.1131
     39 C         1.811895   -1.541567   0.574655 C.3        1 UNL1     0.0200
     40 C         2.099375   -0.019373   1.193299 C.3        1 UNL1     0.0661
     41 C         1.318997   1.409947   0.718257 C.3        1 UNL1     0.0091
     42 C         0.894979   2.911469   1.683164 C.3        1 UNL1     0.0661
     43 C         -4.40884   4.885499   8.31657 C.2        1 UNL1     0.2131
     44 O         -5.292134   5.049338   9.138571 O.2        1 UNL1     -0.2851
     45 O         -4.002105   3.301522   10.59483 O.3        1 UNL1     -0.5056
     46 O         -0.873033   2.027218   5.03946 O.2        1 UNL1     -0.2836
     47 C         2.597089   4.264193   3.229377 C.3        1 UNL1     -0.0566
     48 O         1.420019   3.852875   0.664732 O.3        1 UNL1     -0.3909
     49 C         0.097755   1.050884   -0.098526 C.3        1 UNL1     -0.0577
     50 O         2.211274   -0.063667   2.601574 O.3        1 UNL1     -0.3910
     51 O         1.215684   -2.679403   3.14155 O.3        1 UNL1     -0.3753
     52 C         -1.613482   -0.622648   1.774195 C.3        1 UNL1     -0.0564
     53 O         -0.310645   -2.005755   -0.890765 O.3        1 UNL1     -0.4608
     54 C         0.255285   -1.44609   -2.006304 C.2        1 UNL1     0.3042
     55 O         0.183405   -1.853968   -3.164884 O.2        1 UNL1     -0.2512
     56 C         0.986569   -0.163185   -1.730458 C.3        1 UNL1     0.0332
     57 C         2.737822   -2.741132   1.086393 C.3        1 UNL1     -0.0567
     58 C         -2.463453   -0.654345   6.1057 C.3        1 UNL1     0.0210
     59 C         1.462969   -4.075423   3.302307 C.3        1 UNL1     0.0372
     60 C         -0.374547   -1.339519   4.184966 C.2        1 UNL1     -0.0208
     61 C         0.447377   -0.905209   5.141292 C.2        1 UNL1     0.0882
     62 H         0.809234   3.240936   3.813193 H        1 UNL1     0.0365
     63 H         -0.020259   4.545971   5.147005 H        1 UNL1     0.0576
     64 H         -0.127222   7.400651   3.991091 H        1 UNL1     0.0615
     65 H         -1.178204   6.142004   6.649869 H        1 UNL1     0.0622
     66 H         -0.74248   -3.207493   3.351036 H        1 UNL1     0.0645
     67 H         -1.467123   -2.63025   1.442663 H        1 UNL1     0.0362
     68 H         0.429643   -3.190621   0.491749 H        1 UNL1     0.0741
     69 H         2.236706   -1.478089   -0.418277 H        1 UNL1     0.0359
     70 H         3.135822   0.138124   0.838289 H        1 UNL1     0.0600
     71 H         2.014127   1.756387   -0.071509 H        1 UNL1     0.0348
     72 H         1.67975   2.395169   2.254903 H        1 UNL1     0.0602
     73 H         -1.401927   -1.072559   4.206689 H        1 UNL1     0.0628
     74 H         1.522742   -1.085533   5.158932 H        1 UNL1     0.1022
     75 H         -2.032874   10.182404   7.001299 H        1 UNL1     0.0279
     76 H         -2.356439   9.921024   5.33388 H        1 UNL1     0.0279
     77 H         -3.600987   9.608838   6.610179 H        1 UNL1     0.0279
     78 H         -4.551577   7.598376   6.470743 H        1 UNL1     0.1553
     79 H         -3.966629   6.968394   4.685474 H        1 UNL1     0.1484
     80 H         -4.40029   3.914643   2.466007 H        1 UNL1     0.0317
     81 H         -5.17475   4.065629   4.036784 H        1 UNL1     0.0317
     82 H         -5.659078   6.493231   3.629498 H        1 UNL1     0.0428
     83 H         -6.335147   5.452423   2.396067 H        1 UNL1     0.0428
     84 H         -2.68964   7.424564   1.434779 H        1 UNL1     0.0428
     85 H         -3.360168   7.765286   2.991514 H        1 UNL1     0.0428
     86 H         -1.509984   6.094058   2.89841 H        1 UNL1     0.0317
     87 H         -2.380161   5.039601   1.881914 H        1 UNL1     0.0317
     88 H         -5.984973   8.070806   1.773886 H        1 UNL1     0.0429
     89 H         -4.732166   8.217561   0.538907 H        1 UNL1     0.0429
     90 H         -7.235541   6.484509   0.600571 H        1 UNL1     0.0308
     91 H         -6.973294   7.188324   -1.988862 H        1 UNL1     0.0233
     92 H         -7.618731   8.338493   -0.790523 H        1 UNL1     0.0233
     93 H         -5.957996   8.465226   -1.329502 H        1 UNL1     0.0233
     94 H         -6.338439   5.068633   -1.215523 H        1 UNL1     0.0233
     95 H         -4.7348   5.764916   -0.936484 H        1 UNL1     0.0233
     96 H         -5.521902   4.807624   0.339468 H        1 UNL1     0.0233
     97 H         -2.996565   -0.306246   10.127011 H        1 UNL1     0.0280
     98 H         -1.679312   0.501766   10.932708 H        1 UNL1     0.0280
     99 H         -3.365797   0.971196   11.300313 H        1 UNL1     0.0280
     100 H         -3.836315   4.197382   10.830564 H        1 UNL1     0.2922
     101 H         2.897452   5.110272   2.611649 H        1 UNL1     0.0236
     102 H         3.153409   3.360317   2.983411 H        1 UNL1     0.0236
     103 H         2.927937   4.52952   4.247382 H        1 UNL1     0.0236
     104 H         1.666723   3.328601   -0.122188 H        1 UNL1     0.2098
     105 H         -0.825895   1.505191   0.25117 H        1 UNL1     0.0234
     106 H         0.208608   1.199059   -1.172622 H        1 UNL1     0.0234
     107 H         0.0   0.0   0.0 H        1 UNL1     0.0234
     108 H         2.864849   -0.756   2.819022 H        1 UNL1     0.2098
     109 H         -2.49856   -0.803414   2.400033 H        1 UNL1     0.0234
     110 H         -1.088082   0.269552   2.131516 H        1 UNL1     0.0234
     111 H         -2.00071   -0.327241   0.789952 H        1 UNL1     0.0234
     112 H         1.98252   -0.380624   -1.33278 H        1 UNL1     0.0342
     113 H         1.048373   0.471017   -2.613527 H        1 UNL1     0.0342
     114 H         0.430321   0.390286   -0.961418 H        1 UNL1     0.0342
     115 H         3.440054   -3.07482   0.310048 H        1 UNL1     0.0234
     116 H         3.322331   -2.501946   1.977004 H        1 UNL1     0.0234
     117 H         2.180846   -3.673007   1.284707 H        1 UNL1     0.0234
     118 H         -2.191915   -1.662893   5.747784 H        1 UNL1     0.0309
     119 H         -3.239097   -0.743381   6.872936 H        1 UNL1     0.0309
     120 H         -2.948784   -0.199603   5.2352 H        1 UNL1     0.0309
     121 H         1.396684   -4.537515   2.317709 H        1 UNL1     0.0524
     122 H         2.472309   -4.278765   3.697178 H        1 UNL1     0.0524
     123 H         0.727727   -4.512704   3.971858 H        1 UNL1     0.0524
@<TRIPOS>BOND
     1     1     2    1
     2     1    42    1
     3     2     3    2
     4     3     4    1
     5     4     5    2
     6     5     7    1
     7     6    75    1
     8     6    76    1
     9     6    77    1
    10     7     9   am
    11     9    10    1
    12    10    11    2
    13    10    43    1
    14    11    14    1
    15    11    15    1
    16    12    13   ar
    17    12    27   ar
    18    12    43    1
    19    13    14    1
    20    13    30   ar
    21    14    17    2
    22    15    16    1
    23    16    17    1
    24    16    18    1
    25    16    22    1
    26    18    19    1
    27    19    20    1
    28    20    21    1
    29    21    22    1
    30    23    24    1
    31    23    88    1
    32    23    89    1
    33    24    25    1
    34    24    26    1
    35    24    90    1
    36    25    91    1
    37    25    92    1
    38    25    93    1
    39    26    94    1
    40    26    95    1
    41    26    96    1
    42    27    28   ar
    43    28    29   ar
    44    29    30   ar
    45    29    31    1
    46    30    33    1
    47    31    32    1
    48    32    33    1
    49    32    35    1
    50    34    97    1
    51    34    98    1
    52    34    99    1
    53    35    61    1
    54    36    37    1
    55    36    60    1
    56    37    38    1
    57    38    39    1
    58    39    40    1
    59    40    41    1
    60    41    42    1
    61    45   100    1
    62    47   101    1
    63    47   102    1
    64    47   103    1
    65    48   104    1
    66    49   105    1
    67    49   106    1
    68    49   107    1
    69    50   108    1
    70    51    59    1
    71    52   109    1
    72    52   110    1
    73    52   111    1
    74    53    54    1
    75    54    55    2
    76    54    56    1
    77    56   112    1
    78    56   113    1
    79    56   114    1
    80    57   115    1
    81    57   116    1
    82    57   117    1
    83    58   118    1
    84    58   119    1
    85    58   120    1
    86    59   121    1
    87    59   122    1
    88    59   123    1
    89    60    61    2
    90     1    47    1
    91     1    62    1
    92     2    63    1
    93     3    64    1
    94     4    65    1
    95     5     6    1
    96     7     8    2
    97     9    78    1
    98    15    79    1
    99    18    80    1
   100    18    81    1
   101    19    82    1
   102    19    83    1
   103    20    23    1
   104    21    84    1
   105    21    85    1
   106    22    86    1
   107    22    87    1
   108    27    45    1
   109    28    34    1
   110    32    58    1
   111    33    46    2
   112    36    51    1
   113    36    66    1
   114    37    52    1
   115    37    67    1
   116    38    53    1
   117    38    68    1
   118    42    48    1
   119    42    72    1
   120    43    44    2
   121    60    73    1
   122    61    74    1
   123    39    69    1
   124    39    57    1
   125    40    70    1
   126    40    50    1
   127    41    71    1
   128    41    49    1
