@<TRIPOS>MOLECULE
*****
 123 128 0 0 0
SMALL
GASTEIGER

@<TRIPOS>ATOM
     1 C         -2.80429   4.486039   -1.399447 C.3        1 UNL1     0.0009
     2 C         -2.925206   5.895721   -2.597451 C.2        1 UNL1     -0.0787
     3 C         -2.745035   7.297961   -2.909394 C.2        1 UNL1     -0.0649
     4 C         -2.954307   8.066921   -4.403134 C.2        1 UNL1     -0.0542
     5 C         -2.636217   9.212137   -5.174093 C.2        1 UNL1     0.0115
     6 C         -2.003655   10.62983   -5.116331 C.3        1 UNL1     -0.0348
     7 C         -2.825464   9.153311   -6.767114 C.2        1 UNL1     0.2441
     8 O         -3.776189   9.663558   -7.343563 O.2        1 UNL1     -0.2702
     9 N         -1.698289   8.705809   -7.478009 N.am        1 UNL1     -0.2772
     10 C         -1.714056   7.334428   -7.589309 C.2        1 UNL1     0.1049
     11 C         -1.24689   6.661019   -6.553694 C.2        1 UNL1     0.0801
     12 C         -3.183851   5.412685   -8.224873 C.ar        1 UNL1     0.0753
     13 C         -2.804547   4.813108   -6.981794 C.ar        1 UNL1     0.0305
     14 C         -1.721322   5.359767   -6.167645 C.2        1 UNL1     0.0924
     15 N         -0.56012   7.091935   -5.481694 N.pl3        1 UNL1     -0.3170
     16 C         -0.13959   5.935844   -4.735461 C.3        1 UNL1     0.1275
     17 N         -1.175248   4.88464   -5.051856 N.2        1 UNL1     -0.2557
     18 C         1.164647   5.446072   -5.357386 C.3        1 UNL1     0.0016
     19 C         2.164241   6.591672   -5.356353 C.3        1 UNL1     0.0026
     20 N         2.371   7.030827   -3.983246 N.3        1 UNL1     -0.3018
     21 C         1.16154   7.463346   -3.280036 C.3        1 UNL1     0.0026
     22 C         0.173198   6.295873   -3.289055 C.3        1 UNL1     0.0016
     23 C         3.516656   7.906575   -3.837708 C.3        1 UNL1     0.0012
     24 C         4.205048   8.122918   -5.194567 C.3        1 UNL1     -0.0339
     25 C         5.397299   9.086156   -5.073046 C.3        1 UNL1     -0.0615
     26 C         4.623189   6.787585   -5.785181 C.3        1 UNL1     -0.0615
     27 C         -4.13337   4.818465   -9.052783 C.ar        1 UNL1     0.1347
     28 C         -4.740563   3.609325   -8.764081 C.ar        1 UNL1     0.0342
     29 C         -4.387876   3.061999   -7.512198 C.ar        1 UNL1     0.1435
     30 C         -3.465232   3.664275   -6.655921 C.ar        1 UNL1     0.0774
     31 O         -4.809886   1.835283   -7.13526 O.3        1 UNL1     -0.4436
     32 C         -3.904789   1.445277   -6.091437 C.3        1 UNL1     0.3143
     33 C         -3.348069   2.744007   -5.5441 C.2        1 UNL1     0.2504
     34 C         -5.572682   2.791905   -9.712501 C.3        1 UNL1     -0.0327
     35 O         -4.688084   0.854215   -5.047241 O.2        1 UNL1     -0.4528
     36 C         -2.435723   -1.70494   -3.378205 C.3        1 UNL1     0.0854
     37 C         -1.025088   -1.500791   -2.702961 C.3        1 UNL1     0.0236
     38 C         -0.921513   -2.011498   -1.186322 C.3        1 UNL1     0.1131
     39 C         -2.004721   -1.554125   -0.128143 C.3        1 UNL1     0.0200
     40 C         -2.515833   0.03279   -0.074258 C.3        1 UNL1     0.0661
     41 C         -1.511566   1.399226   -0.03057 C.3        1 UNL1     0.0091
     42 C         -1.761001   3.081845   -0.717576 C.3        1 UNL1     0.0661
     43 C         -2.467312   6.642234   -8.645636 C.2        1 UNL1     0.2131
     44 O         -2.40092   7.020447   -9.801181 O.2        1 UNL1     -0.2851
     45 O         -4.479351   5.490239   -10.223447 O.3        1 UNL1     -0.5056
     46 O         -2.92403   2.973382   -4.4335 O.2        1 UNL1     -0.2836
     47 C         -3.939347   4.576246   -0.344226 C.3        1 UNL1     -0.0566
     48 O         -1.344457   3.774896   0.52552 O.3        1 UNL1     -0.3909
     49 C         -0.102731   0.981052   -0.388076 C.3        1 UNL1     -0.0577
     50 O         -3.58335   0.246359   -0.975656 O.3        1 UNL1     -0.3910
     51 O         -3.469272   -2.143181   -2.525472 O.3        1 UNL1     -0.3753
     52 C         -0.334171   -0.183716   -3.185553 C.3        1 UNL1     -0.0564
     53 O         0.489081   -2.132943   -0.688525 O.3        1 UNL1     -0.4608
     54 C         1.609357   -1.731175   -1.367858 C.2        1 UNL1     0.3042
     55 O         2.20031   -0.656951   -1.264622 O.2        1 UNL1     -0.2512
     56 C         2.164891   -2.782063   -2.286405 C.3        1 UNL1     0.0332
     57 C         -3.119084   -2.698997   -0.05306 C.3        1 UNL1     -0.0567
     58 C         -2.760695   0.660848   -6.774994 C.3        1 UNL1     0.0210
     59 C         -3.165124   -3.312844   -1.767021 C.3        1 UNL1     0.0372
     60 C         -2.958487   -0.520842   -4.112909 C.2        1 UNL1     -0.0208
     61 C         -4.174997   0.025808   -4.117472 C.2        1 UNL1     0.0882
     62 H         -3.161798   3.811433   -2.186724 H        1 UNL1     0.0365
     63 H         -3.397267   5.399945   -3.448236 H        1 UNL1     0.0576
     64 H         -2.277896   7.986396   -2.201618 H        1 UNL1     0.0615
     65 H         -3.493587   7.328762   -5.002952 H        1 UNL1     0.0622
     66 H         -2.268255   -2.481221   -4.138066 H        1 UNL1     0.0645
     67 H         -0.371956   -2.223073   -3.222852 H        1 UNL1     0.0362
     68 H         -1.100867   -3.086334   -1.34151 H        1 UNL1     0.0741
     69 H         -1.6072   -1.709089   0.866025 H        1 UNL1     0.0359
     70 H         -2.990944   0.04626   0.925316 H        1 UNL1     0.0600
     71 H         -1.424745   1.540355   1.064648 H        1 UNL1     0.0348
     72 H         -2.760688   2.627631   -0.657308 H        1 UNL1     0.0602
     73 H         -2.221849   -0.181889   -4.798274 H        1 UNL1     0.0628
     74 H         -4.966091   -0.224301   -3.409763 H        1 UNL1     0.1022
     75 H         -2.552145   11.274446   -4.387865 H        1 UNL1     0.0279
     76 H         -0.978883   10.689535   -4.756684 H        1 UNL1     0.0279
     77 H         -2.139323   11.194422   -6.050425 H        1 UNL1     0.0279
     78 H         -0.851978   8.96254   -6.9741 H        1 UNL1     0.1553
     79 H         -0.071561   7.967799   -5.448432 H        1 UNL1     0.1484
     80 H         1.536057   4.589923   -4.781341 H        1 UNL1     0.0317
     81 H         1.000689   5.088647   -6.379646 H        1 UNL1     0.0317
     82 H         1.829619   7.424548   -5.992165 H        1 UNL1     0.0428
     83 H         3.086199   6.221258   -5.805616 H        1 UNL1     0.0428
     84 H         1.331154   7.71187   -2.227763 H        1 UNL1     0.0428
     85 H         0.747418   8.386385   -3.708778 H        1 UNL1     0.0428
     86 H         -0.639613   6.599704   -2.655799 H        1 UNL1     0.0317
     87 H         0.602091   5.437718   -2.757344 H        1 UNL1     0.0317
     88 H         3.160056   8.876886   -3.468077 H        1 UNL1     0.0429
     89 H         4.22312   7.518506   -3.092668 H        1 UNL1     0.0429
     90 H         3.482166   8.549309   -5.900149 H        1 UNL1     0.0308
     91 H         6.34708   8.564527   -5.224446 H        1 UNL1     0.0233
     92 H         5.313963   9.897607   -5.799827 H        1 UNL1     0.0233
     93 H         5.449996   9.563138   -4.086869 H        1 UNL1     0.0233
     94 H         5.525729   6.419545   -5.285378 H        1 UNL1     0.0233
     95 H         3.830625   6.048808   -5.63681 H        1 UNL1     0.0233
     96 H         4.831016   6.872195   -6.855516 H        1 UNL1     0.0233
     97 H         -4.997231   1.997771   -10.178806 H        1 UNL1     0.0280
     98 H         -6.411831   2.297382   -9.206011 H        1 UNL1     0.0280
     99 H         -5.971738   3.442354   -10.507967 H        1 UNL1     0.0280
     100 H         -4.238814   6.399929   -10.23852 H        1 UNL1     0.2922
     101 H         -4.154673   5.621679   -0.124316 H        1 UNL1     0.0236
     102 H         -3.731896   4.002729   0.558561 H        1 UNL1     0.0236
     103 H         -4.891045   4.168337   -0.723798 H        1 UNL1     0.0236
     104 H         -1.912219   4.563653   0.627884 H        1 UNL1     0.2098
     105 H         0.095874   0.938875   -1.45606 H        1 UNL1     0.0234
     106 H         0.681559   1.541863   0.120162 H        1 UNL1     0.0234
     107 H         0.0   0.0   0.0 H        1 UNL1     0.0234
     108 H         -3.789594   1.200818   -0.960142 H        1 UNL1     0.2098
     109 H         0.363887   -0.360261   -4.01577 H        1 UNL1     0.0234
     110 H         -1.047544   0.598468   -3.466676 H        1 UNL1     0.0234
     111 H         0.263662   0.275709   -2.387135 H        1 UNL1     0.0234
     112 H         3.25254   -2.833656   -2.178217 H        1 UNL1     0.0342
     113 H         1.70879   -3.756354   -2.11737 H        1 UNL1     0.0342
     114 H         1.943033   -2.485627   -3.320846 H        1 UNL1     0.0342
     115 H         -3.241304   -3.21374   -1.016019 H        1 UNL1     0.0234
     116 H         -2.922542   -3.460862   0.703895 H        1 UNL1     0.0234
     117 H         -4.138738   -2.310284   0.111709 H        1 UNL1     0.0234
     118 H         -1.883353   1.299743   -6.977703 H        1 UNL1     0.0309
     119 H         -2.440552   -0.216598   -6.204205 H        1 UNL1     0.0309
     120 H         -3.039054   0.29155   -7.768091 H        1 UNL1     0.0309
     121 H         -4.050648   -3.568346   -1.185711 H        1 UNL1     0.0524
     122 H         -2.928363   -4.17778   -2.408791 H        1 UNL1     0.0524
     123 H         -2.324279   -3.123855   -1.105692 H        1 UNL1     0.0524
@<TRIPOS>BOND
     1     1     2    1
     2     1    42    1
     3     2     3    2
     4     3     4    1
     5     4     5    2
     6     5     7    1
     7     6    75    1
     8     6    76    1
     9     6    77    1
    10     7     9   am
    11     9    10    1
    12    10    11    2
    13    10    43    1
    14    11    14    1
    15    11    15    1
    16    12    13   ar
    17    12    27   ar
    18    12    43    1
    19    13    14    1
    20    13    30   ar
    21    14    17    2
    22    15    16    1
    23    16    17    1
    24    16    18    1
    25    16    22    1
    26    18    19    1
    27    19    20    1
    28    20    21    1
    29    21    22    1
    30    23    24    1
    31    23    88    1
    32    23    89    1
    33    24    25    1
    34    24    26    1
    35    24    90    1
    36    25    91    1
    37    25    92    1
    38    25    93    1
    39    26    94    1
    40    26    95    1
    41    26    96    1
    42    27    28   ar
    43    28    29   ar
    44    29    30   ar
    45    29    31    1
    46    30    33    1
    47    31    32    1
    48    32    33    1
    49    32    35    1
    50    34    97    1
    51    34    98    1
    52    34    99    1
    53    35    61    1
    54    36    37    1
    55    36    60    1
    56    37    38    1
    57    38    39    1
    58    39    40    1
    59    40    41    1
    60    41    42    1
    61    45   100    1
    62    47   101    1
    63    47   102    1
    64    47   103    1
    65    48   104    1
    66    49   105    1
    67    49   106    1
    68    49   107    1
    69    50   108    1
    70    51    59    1
    71    52   109    1
    72    52   110    1
    73    52   111    1
    74    53    54    1
    75    54    55    2
    76    54    56    1
    77    56   112    1
    78    56   113    1
    79    56   114    1
    80    57   115    1
    81    57   116    1
    82    57   117    1
    83    58   118    1
    84    58   119    1
    85    58   120    1
    86    59   121    1
    87    59   122    1
    88    59   123    1
    89    60    61    2
    90     1    47    1
    91     1    62    1
    92     2    63    1
    93     3    64    1
    94     4    65    1
    95     5     6    1
    96     7     8    2
    97     9    78    1
    98    15    79    1
    99    18    80    1
   100    18    81    1
   101    19    82    1
   102    19    83    1
   103    20    23    1
   104    21    84    1
   105    21    85    1
   106    22    86    1
   107    22    87    1
   108    27    45    1
   109    28    34    1
   110    32    58    1
   111    33    46    2
   112    36    51    1
   113    36    66    1
   114    37    52    1
   115    37    67    1
   116    38    53    1
   117    38    68    1
   118    42    48    1
   119    42    72    1
   120    43    44    2
   121    60    73    1
   122    61    74    1
   123    39    69    1
   124    39    57    1
   125    40    70    1
   126    40    50    1
   127    41    71    1
   128    41    49    1
