@<TRIPOS>MOLECULE
*****
 123 128 0 0 0
SMALL
GASTEIGER

@<TRIPOS>ATOM
     1 C         -2.30337   3.818296   1.928216 C.3        1 UNL1     0.0009
     2 C         -3.192578   5.281799   1.217931 C.2        1 UNL1     -0.0787
     3 C         -3.29986   6.712067   1.020776 C.2        1 UNL1     -0.0649
     4 C         -4.414067   7.54931   0.059566 C.2        1 UNL1     -0.0542
     5 C         -4.684134   8.767577   -0.61123 C.2        1 UNL1     0.0115
     6 C         -4.208454   10.235519   -0.790662 C.3        1 UNL1     -0.0348
     7 C         -5.80956   8.791325   -1.755714 C.2        1 UNL1     0.2441
     8 O         -6.93379   9.238218   -1.574279 O.2        1 UNL1     -0.2702
     9 N         -5.339801   8.506498   -3.049681 N.am        1 UNL1     -0.2772
     10 C         -5.36428   7.150452   -3.281763 C.2        1 UNL1     0.1049
     11 C         -4.332258   6.463353   -2.826737 C.2        1 UNL1     0.0801
     12 C         -6.833936   5.13398   -3.104887 C.ar        1 UNL1     0.0753
     13 C         -5.746714   4.498082   -2.425041 C.ar        1 UNL1     0.0305
     14 C         -4.415453   5.09881   -2.381229 C.2        1 UNL1     0.0924
     15 N         -3.150204   6.892588   -2.35236 N.pl3        1 UNL1     -0.3170
     16 C         -2.312897   5.739956   -2.150837 C.3        1 UNL1     0.1275
     17 N         -3.280143   4.611466   -1.888792 N.2        1 UNL1     -0.2557
     18 C         -1.647226   5.425449   -3.487126 C.3        1 UNL1     0.0016
     19 C         -0.906025   6.664062   -3.964673 C.3        1 UNL1     0.0026
     20 N         0.082466   7.033673   -2.961029 N.3        1 UNL1     -0.3018
     21 C         -0.456235   7.295774   -1.624813 C.3        1 UNL1     0.0026
     22 C         -1.192577   6.037094   -1.162839 C.3        1 UNL1     0.0016
     23 C         1.038618   8.009984   -3.443971 C.3        1 UNL1     0.0012
     24 C         1.978133   7.376057   -4.481857 C.3        1 UNL1     -0.0339
     25 C         1.571739   7.756842   -5.915002 C.3        1 UNL1     -0.0615
     26 C         3.416856   7.763394   -4.187196 C.3        1 UNL1     -0.0615
     27 C         -8.066347   4.500459   -3.246073 C.ar        1 UNL1     0.1347
     28 C         -8.31774   3.220103   -2.786137 C.ar        1 UNL1     0.0342
     29 C         -7.248228   2.632822   -2.077329 C.ar        1 UNL1     0.1435
     30 C         -6.019896   3.269814   -1.896606 C.ar        1 UNL1     0.0774
     31 O         -7.298778   1.348172   -1.662449 O.3        1 UNL1     -0.4436
     32 C         -5.928291   0.986303   -1.435096 C.3        1 UNL1     0.3143
     33 C         -5.206696   2.297309   -1.196815 C.2        1 UNL1     0.2504
     34 C         -9.52252   2.384549   -3.118487 C.3        1 UNL1     -0.0327
     35 O         -5.879664   0.253678   -0.204589 O.2        1 UNL1     -0.4528
     36 C         -2.974406   -2.164979   -0.547604 C.3        1 UNL1     0.0854
     37 C         -1.45644   -1.86228   -0.850382 C.3        1 UNL1     0.0236
     38 C         -0.422054   -2.455294   0.222056 C.3        1 UNL1     0.1131
     39 C         -0.64421   -2.178301   1.763546 C.3        1 UNL1     0.0200
     40 C         -1.079005   -0.658018   2.294703 C.3        1 UNL1     0.0661
     41 C         -0.316987   0.797605   1.872684 C.3        1 UNL1     0.0091
     42 C         -1.004721   2.486555   1.673 C.3        1 UNL1     0.0661
     43 C         -6.578359   6.454082   -3.732799 C.2        1 UNL1     0.2131
     44 O         -7.25153   6.90981   -4.63938 O.2        1 UNL1     -0.2851
     45 O         -9.085787   5.206806   -3.881093 O.3        1 UNL1     -0.5056
     46 O         -4.199666   2.497367   -0.555161 O.2        1 UNL1     -0.2836
     47 C         -2.553117   3.725693   3.457606 C.3        1 UNL1     -0.0566
     48 O         0.058765   3.137769   2.475518 O.3        1 UNL1     -0.3909
     49 C         0.590615   0.547962   0.688862 C.3        1 UNL1     -0.0577
     50 O         -2.482718   -0.496838   2.258176 O.3        1 UNL1     -0.3910
     51 O         -3.246872   -2.759064   0.701498 O.3        1 UNL1     -0.3753
     52 C         -1.262632   -0.453945   -1.501521 C.3        1 UNL1     -0.0564
     53 O         1.000232   -2.464567   -0.256842 O.3        1 UNL1     -0.4608
     54 C         1.451284   -3.076247   -1.397162 C.2        1 UNL1     0.3042
     55 O         1.541213   -4.284565   -1.61098 O.2        1 UNL1     -0.2512
     56 C         1.80976   -2.114424   -2.494024 C.3        1 UNL1     0.0332
     57 C         -1.429106   -3.432665   2.37074 C.3        1 UNL1     -0.0567
     58 C         -5.414565   0.366945   -2.755707 C.3        1 UNL1     0.0210
     59 C         -2.439178   -2.286836   1.778761 C.3        1 UNL1     0.0372
     60 C         -3.886334   -0.995636   -0.674819 C.2        1 UNL1     -0.0208
     61 C         -4.870123   -0.575917   0.121886 C.2        1 UNL1     0.0882
     62 H         -3.041048   3.162381   1.450388 H        1 UNL1     0.0365
     63 H         -4.066879   4.79586   0.779832 H        1 UNL1     0.0576
     64 H         -2.525213   7.397879   1.37105 H        1 UNL1     0.0615
     65 H         -5.177187   6.799953   -0.167578 H        1 UNL1     0.0622
     66 H         -3.277415   -2.870374   -1.334147 H        1 UNL1     0.0645
     67 H         -1.23156   -2.480107   -1.737106 H        1 UNL1     0.0362
     68 H         -0.614573   -3.530713   0.088142 H        1 UNL1     0.0741
     69 H         0.286178   -2.355102   2.286545 H        1 UNL1     0.0359
     70 H         -0.839793   -0.75638   3.370883 H        1 UNL1     0.0600
     71 H         0.418511   0.876852   2.697135 H        1 UNL1     0.0348
     72 H         -1.736728   1.930452   2.276516 H        1 UNL1     0.0602
     73 H         -3.74091   -0.540864   -1.623125 H        1 UNL1     0.0628
     74 H         -5.048378   -0.949425   1.130824 H        1 UNL1     0.1022
     75 H         -4.013871   10.708659   0.201966 H        1 UNL1     0.0279
     76 H         -3.26257   10.379167   -1.308094 H        1 UNL1     0.0279
     77 H         -4.994599   10.89114   -1.192955 H        1 UNL1     0.0279
     78 H         -4.373911   8.815105   -3.138548 H        1 UNL1     0.1553
     79 H         -2.780789   7.809558   -2.524494 H        1 UNL1     0.1484
     80 H         -0.965501   4.576452   -3.355903 H        1 UNL1     0.0317
     81 H         -2.389795   5.119   -4.231661 H        1 UNL1     0.0317
     82 H         -1.594528   7.497484   -4.167858 H        1 UNL1     0.0428
     83 H         -0.440388   6.418327   -4.919579 H        1 UNL1     0.0428
     84 H         0.313703   7.492768   -0.87235 H        1 UNL1     0.0428
     85 H         -1.083861   8.197482   -1.606733 H        1 UNL1     0.0428
     86 H         -1.456437   6.216082   -0.137008 H        1 UNL1     0.0317
     87 H         -0.492715   5.194751   -1.10162 H        1 UNL1     0.0317
     88 H         0.481707   8.823294   -3.927366 H        1 UNL1     0.0429
     89 H         1.605666   8.45585   -2.616665 H        1 UNL1     0.0429
     90 H         1.93598   6.284679   -4.385262 H        1 UNL1     0.0308
     91 H         0.483641   7.776325   -6.027978 H        1 UNL1     0.0233
     92 H         1.977884   8.734514   -6.18484 H        1 UNL1     0.0233
     93 H         1.95631   7.049762   -6.659971 H        1 UNL1     0.0233
     94 H         3.466581   8.363775   -3.27237 H        1 UNL1     0.0233
     95 H         4.021774   6.865253   -4.034291 H        1 UNL1     0.0233
     96 H         3.849261   8.345011   -5.006169 H        1 UNL1     0.0233
     97 H         -9.24965   1.446961   -3.593568 H        1 UNL1     0.0280
     98 H         -10.096774   2.111951   -2.223401 H        1 UNL1     0.0280
     99 H         -10.179858   2.941775   -3.805873 H        1 UNL1     0.0280
     100 H         -9.215153   6.081665   -3.559364 H        1 UNL1     0.2922
     101 H         -3.26545   2.927733   3.666166 H        1 UNL1     0.0236
     102 H         -2.859127   4.673081   3.900097 H        1 UNL1     0.0236
     103 H         -1.642296   3.439029   4.00935 H        1 UNL1     0.0236
     104 H         0.885961   2.638336   2.329634 H        1 UNL1     0.2098
     105 H         0.934552   1.449769   0.1886 H        1 UNL1     0.0234
     106 H         1.43117   -0.115627   0.891451 H        1 UNL1     0.0234
     107 H         0.0   -0.0   0.0 H        1 UNL1     0.0234
     108 H         -2.796979   -0.4803   3.182695 H        1 UNL1     0.2098
     109 H         -1.832605   0.327529   -0.97985 H        1 UNL1     0.0234
     110 H         -0.2116   -0.154247   -1.574021 H        1 UNL1     0.0234
     111 H         -1.616749   -0.436399   -2.540867 H        1 UNL1     0.0234
     112 H         2.143982   -2.665889   -3.378064 H        1 UNL1     0.0342
     113 H         0.985194   -1.446565   -2.738769 H        1 UNL1     0.0342
     114 H         2.648051   -1.494906   -2.146704 H        1 UNL1     0.0342
     115 H         -0.906596   -4.377938   2.169172 H        1 UNL1     0.0234
     116 H         -1.595834   -3.372896   3.448088 H        1 UNL1     0.0234
     117 H         -2.402459   -3.619503   1.885338 H        1 UNL1     0.0234
     118 H         -5.236028   -0.718627   -2.662629 H        1 UNL1     0.0309
     119 H         -6.082339   0.548661   -3.603799 H        1 UNL1     0.0309
     120 H         -4.435433   0.759512   -3.051169 H        1 UNL1     0.0309
     121 H         -2.85866   -2.682435   2.703365 H        1 UNL1     0.0524
     122 H         -1.397733   -2.642376   1.707904 H        1 UNL1     0.0524
     123 H         -2.440201   -1.200748   1.801243 H        1 UNL1     0.0524
@<TRIPOS>BOND
     1     1     2    1
     2     1    42    1
     3     2     3    2
     4     3     4    1
     5     4     5    2
     6     5     7    1
     7     6    75    1
     8     6    76    1
     9     6    77    1
    10     7     9   am
    11     9    10    1
    12    10    11    2
    13    10    43    1
    14    11    14    1
    15    11    15    1
    16    12    13   ar
    17    12    27   ar
    18    12    43    1
    19    13    14    1
    20    13    30   ar
    21    14    17    2
    22    15    16    1
    23    16    17    1
    24    16    18    1
    25    16    22    1
    26    18    19    1
    27    19    20    1
    28    20    21    1
    29    21    22    1
    30    23    24    1
    31    23    88    1
    32    23    89    1
    33    24    25    1
    34    24    26    1
    35    24    90    1
    36    25    91    1
    37    25    92    1
    38    25    93    1
    39    26    94    1
    40    26    95    1
    41    26    96    1
    42    27    28   ar
    43    28    29   ar
    44    29    30   ar
    45    29    31    1
    46    30    33    1
    47    31    32    1
    48    32    33    1
    49    32    35    1
    50    34    97    1
    51    34    98    1
    52    34    99    1
    53    35    61    1
    54    36    37    1
    55    36    60    1
    56    37    38    1
    57    38    39    1
    58    39    40    1
    59    40    41    1
    60    41    42    1
    61    45   100    1
    62    47   101    1
    63    47   102    1
    64    47   103    1
    65    48   104    1
    66    49   105    1
    67    49   106    1
    68    49   107    1
    69    50   108    1
    70    51    59    1
    71    52   109    1
    72    52   110    1
    73    52   111    1
    74    53    54    1
    75    54    55    2
    76    54    56    1
    77    56   112    1
    78    56   113    1
    79    56   114    1
    80    57   115    1
    81    57   116    1
    82    57   117    1
    83    58   118    1
    84    58   119    1
    85    58   120    1
    86    59   121    1
    87    59   122    1
    88    59   123    1
    89    60    61    2
    90     1    47    1
    91     1    62    1
    92     2    63    1
    93     3    64    1
    94     4    65    1
    95     5     6    1
    96     7     8    2
    97     9    78    1
    98    15    79    1
    99    18    80    1
   100    18    81    1
   101    19    82    1
   102    19    83    1
   103    20    23    1
   104    21    84    1
   105    21    85    1
   106    22    86    1
   107    22    87    1
   108    27    45    1
   109    28    34    1
   110    32    58    1
   111    33    46    2
   112    36    51    1
   113    36    66    1
   114    37    52    1
   115    37    67    1
   116    38    53    1
   117    38    68    1
   118    42    48    1
   119    42    72    1
   120    43    44    2
   121    60    73    1
   122    61    74    1
   123    39    69    1
   124    39    57    1
   125    40    70    1
   126    40    50    1
   127    41    71    1
   128    41    49    1
