@<TRIPOS>MOLECULE
*****
 123 128 0 0 0
SMALL
GASTEIGER

@<TRIPOS>ATOM
     1 C         -0.086887   -4.820237   -2.09685 C.3        1 UNL1     0.0009
     2 C         -0.46466   -5.669634   -3.700861 C.2        1 UNL1     -0.0787
     3 C         -1.283243   -6.573584   -4.481144 C.2        1 UNL1     -0.0649
     4 C         -1.184049   -6.898283   -6.139785 C.2        1 UNL1     -0.0542
     5 C         -1.877194   -7.403086   -7.267527 C.2        1 UNL1     0.0115
     6 C         -3.157163   -8.157115   -7.721889 C.3        1 UNL1     -0.0348
     7 C         -1.334917   -7.047346   -8.735986 C.2        1 UNL1     0.2441
     8 O         -0.696821   -7.836579   -9.418973 O.2        1 UNL1     -0.2702
     9 N         -1.862851   -5.867692   -9.289027 N.am        1 UNL1     -0.2772
     10 C         -1.100601   -4.78241   -8.922337 C.2        1 UNL1     0.1049
     11 C         -1.359082   -4.263931   -7.735497 C.2        1 UNL1     0.0801
     12 C         1.260618   -3.964526   -8.808122 C.ar        1 UNL1     0.0753
     13 C         0.988716   -3.608186   -7.448821 C.ar        1 UNL1     0.0305
     14 C         -0.369384   -3.626363   -6.910039 C.2        1 UNL1     0.0924
     15 N         -2.388952   -4.486938   -6.901134 N.pl3        1 UNL1     -0.3170
     16 C         -2.289546   -3.544283   -5.818649 C.3        1 UNL1     0.1275
     17 N         -0.81517   -3.237756   -5.718743 N.2        1 UNL1     -0.2557
     18 C         -2.960077   -2.253788   -6.279854 C.3        1 UNL1     0.0016
     19 C         -4.384265   -2.571445   -6.706901 C.3        1 UNL1     0.0026
     20 N         -5.092629   -3.154778   -5.575985 N.3        1 UNL1     -0.3018
     21 C         -4.487662   -4.367892   -5.022145 C.3        1 UNL1     0.0026
     22 C         -3.05935   -4.024706   -4.595479 C.3        1 UNL1     0.0016
     23 C         -6.526216   -3.217181   -5.77989 C.3        1 UNL1     0.0012
     24 C         -6.849543   -3.856269   -7.13959 C.3        1 UNL1     -0.0339
     25 C         -6.650921   -5.380564   -7.10598 C.3        1 UNL1     -0.0615
     26 C         -8.258917   -3.485489   -7.567336 C.3        1 UNL1     -0.0615
     27 C         2.537399   -3.829242   -9.348164 C.ar        1 UNL1     0.1347
     28 C         3.60895   -3.313658   -8.641055 C.ar        1 UNL1     0.0342
     29 C         3.32928   -3.015451   -7.290492 C.ar        1 UNL1     0.1435
     30 C         2.063913   -3.179831   -6.725649 C.ar        1 UNL1     0.0774
     31 O         4.238701   -2.403363   -6.500994 O.3        1 UNL1     -0.4436
     32 C         3.469959   -1.856397   -5.418988 C.3        1 UNL1     0.3143
     33 C         2.205492   -2.690047   -5.370351 C.2        1 UNL1     0.2504
     34 C         4.934421   -2.906154   -9.221716 C.3        1 UNL1     -0.0327
     35 O         4.190328   -2.120103   -4.208707 O.2        1 UNL1     -0.4528
     36 C         3.324112   0.718711   -1.842509 C.3        1 UNL1     0.0854
     37 C         1.909819   1.190493   -1.327999 C.3        1 UNL1     0.0236
     38 C         1.755658   1.248087   0.267201 C.3        1 UNL1     0.1131
     39 C         2.164713   -0.005275   1.141288 C.3        1 UNL1     0.0200
     40 C         1.733016   -1.544545   0.665134 C.3        1 UNL1     0.0661
     41 C         0.178803   -2.042242   0.202177 C.3        1 UNL1     0.0091
     42 C         -0.352136   -3.311416   -1.011373 C.3        1 UNL1     0.0661
     43 C         0.118247   -4.398666   -9.650007 C.2        1 UNL1     0.2131
     44 O         0.12244   -4.350883   -10.866739 O.2        1 UNL1     -0.2851
     45 O         2.727676   -4.241593   -10.665434 O.3        1 UNL1     -0.5056
     46 O         1.488665   -2.917099   -4.421426 O.2        1 UNL1     -0.2836
     47 C         0.55926   -5.817351   -1.097731 C.3        1 UNL1     -0.0566
     48 O         -1.337393   -3.93767   -0.096938 O.3        1 UNL1     -0.3909
     49 C         -0.674349   -0.816913   -0.039058 C.3        1 UNL1     -0.0577
     50 O         2.696158   -2.084887   -0.216973 O.3        1 UNL1     -0.3910
     51 O         4.211546   0.243318   -0.855649 O.3        1 UNL1     -0.3753
     52 C         0.756023   0.689945   -2.257061 C.3        1 UNL1     -0.0564
     53 O         0.553074   2.019323   0.726887 O.3        1 UNL1     -0.4608
     54 C         0.389312   2.569547   1.971221 C.2        1 UNL1     0.3042
     55 O         1.108851   3.40335   2.519742 O.2        1 UNL1     -0.2512
     56 C         -0.854706   2.10648   2.674572 C.3        1 UNL1     0.0332
     57 C         3.665506   0.226113   1.643536 C.3        1 UNL1     -0.0567
     58 C         3.100039   -0.412563   -5.831337 C.3        1 UNL1     0.0210
     59 C         5.593613   0.334261   -1.198415 C.3        1 UNL1     0.0372
     60 C         3.291073   -0.307261   -2.920216 C.2        1 UNL1     -0.0208
     61 C         3.999778   -1.427152   -3.06963 C.2        1 UNL1     0.0882
     62 H         0.738351   -4.294226   -2.591831 H        1 UNL1     0.0365
     63 H         0.37414   -5.33142   -4.312821 H        1 UNL1     0.0576
     64 H         -2.18781   -7.026683   -4.069358 H        1 UNL1     0.0615
     65 H         -0.218262   -6.476227   -6.430658 H        1 UNL1     0.0622
     66 H         3.766915   1.617072   -2.295189 H        1 UNL1     0.0645
     67 H         1.872629   2.261964   -1.590917 H        1 UNL1     0.0362
     68 H         2.505062   2.02092   0.496641 H        1 UNL1     0.0741
     69 H         1.698672   0.081565   2.113745 H        1 UNL1     0.0359
     70 H         1.891572   -2.089581   1.615322 H        1 UNL1     0.0600
     71 H         -0.211748   -2.389799   1.178718 H        1 UNL1     0.0348
     72 H         0.693188   -3.546873   -0.764042 H        1 UNL1     0.0602
     73 H         2.661871   0.031282   -3.705545 H        1 UNL1     0.0628
     74 H         4.621658   -1.871744   -2.291915 H        1 UNL1     0.1022
     75 H         -3.015387   -8.591416   -8.740867 H        1 UNL1     0.0279
     76 H         -3.442264   -9.026804   -7.134158 H        1 UNL1     0.0279
     77 H         -4.010339   -7.483677   -7.890033 H        1 UNL1     0.0279
     78 H         -2.804366   -5.714861   -8.933684 H        1 UNL1     0.1553
     79 H         -3.259259   -4.896176   -7.18753 H        1 UNL1     0.1484
     80 H         -2.940832   -1.527504   -5.458326 H        1 UNL1     0.0317
     81 H         -2.408393   -1.801573   -7.110997 H        1 UNL1     0.0317
     82 H         -4.407986   -3.242892   -7.577825 H        1 UNL1     0.0428
     83 H         -4.843325   -1.63788   -7.033658 H        1 UNL1     0.0428
     84 H         -4.993161   -4.740173   -4.125658 H        1 UNL1     0.0428
     85 H         -4.540192   -5.209269   -5.726873 H        1 UNL1     0.0428
     86 H         -2.69566   -4.892392   -4.076982 H        1 UNL1     0.0317
     87 H         -3.076217   -3.252308   -3.816883 H        1 UNL1     0.0317
     88 H         -6.956872   -3.843803   -4.987947 H        1 UNL1     0.0429
     89 H         -6.985394   -2.224298   -5.689818 H        1 UNL1     0.0429
     90 H         -6.184286   -3.434179   -7.902143 H        1 UNL1     0.0308
     91 H         -5.912571   -5.701873   -7.846724 H        1 UNL1     0.0233
     92 H         -6.329057   -5.706405   -6.114092 H        1 UNL1     0.0233
     93 H         -7.576858   -5.927235   -7.321913 H        1 UNL1     0.0233
     94 H         -8.23562   -2.612379   -8.228375 H        1 UNL1     0.0233
     95 H         -8.712107   -4.31394   -8.118925 H        1 UNL1     0.0233
     96 H         -8.888548   -3.24929   -6.70493 H        1 UNL1     0.0233
     97 H         5.579263   -3.760597   -9.4043 H        1 UNL1     0.0280
     98 H         4.824185   -2.400509   -10.189924 H        1 UNL1     0.0280
     99 H         5.450172   -2.226995   -8.523261 H        1 UNL1     0.0280
     100 H         2.285081   -3.71562   -11.30815 H        1 UNL1     0.2922
     101 H         -0.220517   -6.358467   -0.562196 H        1 UNL1     0.0236
     102 H         1.268997   -5.345053   -0.419357 H        1 UNL1     0.0236
     103 H         1.140729   -6.600659   -1.612042 H        1 UNL1     0.0236
     104 H         -1.514789   -3.303164   0.624798 H        1 UNL1     0.2098
     105 H         -1.166505   -0.796033   -1.00816 H        1 UNL1     0.0234
     106 H         -1.390165   -0.59731   0.752971 H        1 UNL1     0.0234
     107 H         0.0   0.0   0.0 H        1 UNL1     0.0234
     108 H         2.431988   -3.005876   -0.406078 H        1 UNL1     0.2098
     109 H         0.900211   -0.352158   -2.574773 H        1 UNL1     0.0234
     110 H         -0.237005   0.802258   -1.808702 H        1 UNL1     0.0234
     111 H         0.69809   1.277649   -3.182909 H        1 UNL1     0.0234
     112 H         -0.640302   1.931061   3.733159 H        1 UNL1     0.0342
     113 H         -1.678683   2.808147   2.553868 H        1 UNL1     0.0342
     114 H         -1.164058   1.150238   2.230652 H        1 UNL1     0.0342
     115 H         4.129893   -0.70852   1.987039 H        1 UNL1     0.0234
     116 H         4.323784   0.662036   0.889421 H        1 UNL1     0.0234
     117 H         3.734019   0.845431   2.55441 H        1 UNL1     0.0234
     118 H         3.826841   0.326369   -5.450883 H        1 UNL1     0.0309
     119 H         2.996198   -0.288177   -6.913902 H        1 UNL1     0.0309
     120 H         2.151189   -0.080996   -5.395616 H        1 UNL1     0.0309
     121 H         5.853562   1.391554   -1.242164 H        1 UNL1     0.0524
     122 H         6.243989   -0.136492   -0.442479 H        1 UNL1     0.0524
     123 H         5.773903   -0.136195   -2.160839 H        1 UNL1     0.0524
@<TRIPOS>BOND
     1     1     2    1
     2     1    42    1
     3     2     3    2
     4     3     4    1
     5     4     5    2
     6     5     7    1
     7     6    75    1
     8     6    76    1
     9     6    77    1
    10     7     9   am
    11     9    10    1
    12    10    11    2
    13    10    43    1
    14    11    14    1
    15    11    15    1
    16    12    13   ar
    17    12    27   ar
    18    12    43    1
    19    13    14    1
    20    13    30   ar
    21    14    17    2
    22    15    16    1
    23    16    17    1
    24    16    18    1
    25    16    22    1
    26    18    19    1
    27    19    20    1
    28    20    21    1
    29    21    22    1
    30    23    24    1
    31    23    88    1
    32    23    89    1
    33    24    25    1
    34    24    26    1
    35    24    90    1
    36    25    91    1
    37    25    92    1
    38    25    93    1
    39    26    94    1
    40    26    95    1
    41    26    96    1
    42    27    28   ar
    43    28    29   ar
    44    29    30   ar
    45    29    31    1
    46    30    33    1
    47    31    32    1
    48    32    33    1
    49    32    35    1
    50    34    97    1
    51    34    98    1
    52    34    99    1
    53    35    61    1
    54    36    37    1
    55    36    60    1
    56    37    38    1
    57    38    39    1
    58    39    40    1
    59    40    41    1
    60    41    42    1
    61    45   100    1
    62    47   101    1
    63    47   102    1
    64    47   103    1
    65    48   104    1
    66    49   105    1
    67    49   106    1
    68    49   107    1
    69    50   108    1
    70    51    59    1
    71    52   109    1
    72    52   110    1
    73    52   111    1
    74    53    54    1
    75    54    55    2
    76    54    56    1
    77    56   112    1
    78    56   113    1
    79    56   114    1
    80    57   115    1
    81    57   116    1
    82    57   117    1
    83    58   118    1
    84    58   119    1
    85    58   120    1
    86    59   121    1
    87    59   122    1
    88    59   123    1
    89    60    61    2
    90     1    47    1
    91     1    62    1
    92     2    63    1
    93     3    64    1
    94     4    65    1
    95     5     6    1
    96     7     8    2
    97     9    78    1
    98    15    79    1
    99    18    80    1
   100    18    81    1
   101    19    82    1
   102    19    83    1
   103    20    23    1
   104    21    84    1
   105    21    85    1
   106    22    86    1
   107    22    87    1
   108    27    45    1
   109    28    34    1
   110    32    58    1
   111    33    46    2
   112    36    51    1
   113    36    66    1
   114    37    52    1
   115    37    67    1
   116    38    53    1
   117    38    68    1
   118    42    48    1
   119    42    72    1
   120    43    44    2
   121    60    73    1
   122    61    74    1
   123    39    69    1
   124    39    57    1
   125    40    70    1
   126    40    50    1
   127    41    71    1
   128    41    49    1
