@<TRIPOS>MOLECULE
*****
 123 128 0 0 0
SMALL
GASTEIGER

@<TRIPOS>ATOM
     1 C         5.167039   1.749413   0.490442 C.3        1 UNL1     0.0009
     2 C         6.603304   2.556198   -0.360016 C.2        1 UNL1     -0.0787
     3 C         7.884974   2.458568   -1.026227 C.2        1 UNL1     -0.0649
     4 C         8.761958   3.694225   -1.781479 C.2        1 UNL1     -0.0542
     5 C         9.781618   3.987522   -2.720281 C.2        1 UNL1     0.0115
     6 C         10.909629   3.36271   -3.586609 C.3        1 UNL1     -0.0348
     7 C         9.876501   5.471104   -3.326062 C.2        1 UNL1     0.2441
     8 O         10.700374   6.292697   -2.948248 O.2        1 UNL1     -0.2702
     9 N         9.125849   5.678541   -4.496379 N.am        1 UNL1     -0.2772
     10 C         7.843175   6.064845   -4.181994 C.2        1 UNL1     0.1049
     11 C         6.997652   5.093141   -3.89027 C.2        1 UNL1     0.0801
     12 C         6.544989   7.670558   -2.769998 C.ar        1 UNL1     0.0753
     13 C         5.786273   6.542287   -2.322828 C.ar        1 UNL1     0.0305
     14 C         5.903206   5.236935   -2.968919 C.2        1 UNL1     0.0924
     15 N         7.120442   3.764265   -4.050078 N.pl3        1 UNL1     -0.3170
     16 C         5.85079   3.164721   -3.735778 C.3        1 UNL1     0.1275
     17 N         5.21456   4.119349   -2.755155 N.2        1 UNL1     -0.2557
     18 C         4.997505   3.224291   -4.99913 C.3        1 UNL1     0.0016
     19 C         5.752119   2.540902   -6.128344 C.3        1 UNL1     0.0026
     20 N         6.022624   1.162649   -5.743279 N.3        1 UNL1     -0.3018
     21 C         6.786427   1.001752   -4.504293 C.3        1 UNL1     0.0026
     22 C         6.007944   1.69157   -3.382682 C.3        1 UNL1     0.0016
     23 C         6.466893   0.343752   -6.853538 C.3        1 UNL1     0.0012
     24 C         5.311158   0.094581   -7.835345 C.3        1 UNL1     -0.0339
     25 C         5.346302   1.087333   -9.008915 C.3        1 UNL1     -0.0615
     26 C         5.340338   -1.344665   -8.319595 C.3        1 UNL1     -0.0615
     27 C         6.340298   8.937943   -2.229669 C.ar        1 UNL1     0.1347
     28 C         5.38152   9.206842   -1.269206 C.ar        1 UNL1     0.0342
     29 C         4.680305   8.07204   -0.809112 C.ar        1 UNL1     0.1435
     30 C         4.899792   6.790306   -1.315279 C.ar        1 UNL1     0.0774
     31 O         3.639585   8.184998   0.044789 O.3        1 UNL1     -0.4436
     32 C         2.918066   6.952129   -0.097749 C.3        1 UNL1     0.3143
     33 C         3.931349   5.959464   -0.630747 C.2        1 UNL1     0.2504
     34 C         4.934602   10.572647   -0.827687 C.3        1 UNL1     -0.0327
     35 O         2.557954   6.514703   1.218393 O.2        1 UNL1     -0.4528
     36 C         -0.684903   4.582172   0.821798 C.3        1 UNL1     0.0854
     37 C         -0.990306   3.321988   -0.076082 C.3        1 UNL1     0.0236
     38 C         -1.590378   2.060447   0.711427 C.3        1 UNL1     0.1131
     39 C         -0.864082   1.528981   2.012315 C.3        1 UNL1     0.0200
     40 C         0.797149   1.383695   2.052836 C.3        1 UNL1     0.0661
     41 C         1.756243   0.615612   0.883307 C.3        1 UNL1     0.0091
     42 C         3.463574   0.978739   0.318893 C.3        1 UNL1     0.0661
     43 C         7.494678   7.463577   -3.891385 C.2        1 UNL1     0.2131
     44 O         7.894162   8.362081   -4.609606 O.2        1 UNL1     -0.2851
     45 O         7.152232   9.973416   -2.687923 O.3        1 UNL1     -0.5056
     46 O         3.947585   4.755867   -0.500576 O.2        1 UNL1     -0.2836
     47 C         5.563973   1.319286   1.928293 C.3        1 UNL1     -0.0566
     48 O         3.912402   -0.432332   0.399821 O.3        1 UNL1     -0.3909
     49 C         0.921663   0.383499   -0.356489 C.3        1 UNL1     -0.0577
     50 O         1.397281   2.601462   2.446037 O.3        1 UNL1     -0.3910
     51 O         -0.808475   4.391786   2.213169 O.3        1 UNL1     -0.3753
     52 C         0.053774   3.162263   -1.22905 C.3        1 UNL1     -0.0564
     53 O         -2.193122   1.021809   -0.188715 O.3        1 UNL1     -0.4608
     54 C         -2.427196   -0.28515   0.150398 C.2        1 UNL1     0.3042
     55 O         -1.858085   -1.283968   -0.288137 O.2        1 UNL1     -0.2512
     56 C         -3.466812   -0.451497   1.221957 C.3        1 UNL1     0.0332
     57 C         -1.58478   2.197231   3.274143 C.3        1 UNL1     -0.0567
     58 C         1.842451   7.197577   -1.181418 C.3        1 UNL1     0.0210
     59 C         -1.121609   5.570374   2.953942 C.3        1 UNL1     0.0372
     60 C         0.643907   5.21159   0.591027 C.2        1 UNL1     -0.0208
     61 C         1.557076   5.646545   1.460326 C.2        1 UNL1     0.0882
     62 H         4.690987   2.733464   0.578361 H        1 UNL1     0.0365
     63 H         6.336919   3.609902   -0.2541 H        1 UNL1     0.0576
     64 H         8.34271   1.491902   -1.24791 H        1 UNL1     0.0615
     65 H         8.274847   4.609371   -1.434039 H        1 UNL1     0.0622
     66 H         -1.429786   5.328729   0.512204 H        1 UNL1     0.0645
     67 H         -1.856121   3.631511   -0.686918 H        1 UNL1     0.0362
     68 H         -2.537396   2.496995   1.063714 H        1 UNL1     0.0741
     69 H         -1.195369   0.517733   2.207338 H        1 UNL1     0.0359
     70 H         0.909345   0.722951   2.933682 H        1 UNL1     0.0600
     71 H         1.800145   -0.405755   1.309733 H        1 UNL1     0.0348
     72 H         3.357959   1.466447   1.298843 H        1 UNL1     0.0602
     73 H         0.761403   5.409365   -0.445471 H        1 UNL1     0.0628
     74 H         1.539944   5.435356   2.530066 H        1 UNL1     0.1022
     75 H         10.954345   2.257364   -3.434147 H        1 UNL1     0.0279
     76 H         10.795599   3.446007   -4.665093 H        1 UNL1     0.0279
     77 H         11.91477   3.66742   -3.260197 H        1 UNL1     0.0279
     78 H         9.063804   4.808838   -5.021588 H        1 UNL1     0.1553
     79 H         7.785563   3.336684   -4.667914 H        1 UNL1     0.1484
     80 H         4.036373   2.733106   -4.804892 H        1 UNL1     0.0317
     81 H         4.77063   4.261139   -5.269548 H        1 UNL1     0.0317
     82 H         6.682607   3.072476   -6.376403 H        1 UNL1     0.0428
     83 H         5.12664   2.596376   -7.019831 H        1 UNL1     0.0428
     84 H         6.907027   -0.04133   -4.195673 H        1 UNL1     0.0428
     85 H         7.816422   1.370004   -4.608299 H        1 UNL1     0.0428
     86 H         6.524732   1.440851   -2.474905 H        1 UNL1     0.0317
     87 H         5.028622   1.213713   -3.257474 H        1 UNL1     0.0317
     88 H         7.26268   0.885934   -7.380848 H        1 UNL1     0.0429
     89 H         6.899768   -0.60212   -6.503224 H        1 UNL1     0.0429
     90 H         4.358295   0.213244   -7.306021 H        1 UNL1     0.0308
     91 H         6.299289   1.036971   -9.544062 H        1 UNL1     0.0233
     92 H         4.531194   0.887563   -9.708415 H        1 UNL1     0.0233
     93 H         5.220119   2.126263   -8.680987 H        1 UNL1     0.0233
     94 H         4.645573   -1.475841   -9.156213 H        1 UNL1     0.0233
     95 H         6.343761   -1.600232   -8.671434 H        1 UNL1     0.0233
     96 H         5.057805   -2.039318   -7.523605 H        1 UNL1     0.0233
     97 H         4.13524   10.522517   -0.094381 H        1 UNL1     0.0280
     98 H         5.745008   11.13911   -0.350595 H        1 UNL1     0.0280
     99 H         4.569328   11.140919   -1.698742 H        1 UNL1     0.0280
     100 H         6.684976   10.724628   -3.008818 H        1 UNL1     0.2922
     101 H         4.701412   0.885261   2.433533 H        1 UNL1     0.0236
     102 H         6.014828   2.124427   2.507483 H        1 UNL1     0.0236
     103 H         6.320354   0.516742   1.926536 H        1 UNL1     0.0236
     104 H         4.331953   -0.558764   1.273298 H        1 UNL1     0.2098
     105 H         0.708662   1.28257   -0.929301 H        1 UNL1     0.0234
     106 H         1.290947   -0.404147   -1.013125 H        1 UNL1     0.0234
     107 H         0.0   -0.0   0.0 H        1 UNL1     0.0234
     108 H         1.203768   3.258354   1.749751 H        1 UNL1     0.2098
     109 H         1.078764   3.048776   -0.849277 H        1 UNL1     0.0234
     110 H         -0.178775   2.33545   -1.908788 H        1 UNL1     0.0234
     111 H         0.074585   4.045392   -1.881427 H        1 UNL1     0.0234
     112 H         -3.598918   -1.513373   1.450678 H        1 UNL1     0.0342
     113 H         -3.223463   0.114279   2.120023 H        1 UNL1     0.0342
     114 H         -4.421658   -0.068807   0.835975 H        1 UNL1     0.0342
     115 H         -2.654349   1.948758   3.312513 H        1 UNL1     0.0234
     116 H         -1.147931   1.917084   4.234731 H        1 UNL1     0.0234
     117 H         -1.62358   3.299104   3.226055 H        1 UNL1     0.0234
     118 H         0.941444   7.684134   -0.768557 H        1 UNL1     0.0309
     119 H         2.211418   7.786026   -2.027464 H        1 UNL1     0.0309
     120 H         1.453884   6.265755   -1.60666 H        1 UNL1     0.0309
     121 H         -0.300727   6.273742   2.816896 H        1 UNL1     0.0524
     122 H         -2.041617   6.059434   2.592773 H        1 UNL1     0.0524
     123 H         -1.239162   5.33211   4.007273 H        1 UNL1     0.0524
@<TRIPOS>BOND
     1     1     2    1
     2     1    42    1
     3     2     3    2
     4     3     4    1
     5     4     5    2
     6     5     7    1
     7     6    75    1
     8     6    76    1
     9     6    77    1
    10     7     9   am
    11     9    10    1
    12    10    11    2
    13    10    43    1
    14    11    14    1
    15    11    15    1
    16    12    13   ar
    17    12    27   ar
    18    12    43    1
    19    13    14    1
    20    13    30   ar
    21    14    17    2
    22    15    16    1
    23    16    17    1
    24    16    18    1
    25    16    22    1
    26    18    19    1
    27    19    20    1
    28    20    21    1
    29    21    22    1
    30    23    24    1
    31    23    88    1
    32    23    89    1
    33    24    25    1
    34    24    26    1
    35    24    90    1
    36    25    91    1
    37    25    92    1
    38    25    93    1
    39    26    94    1
    40    26    95    1
    41    26    96    1
    42    27    28   ar
    43    28    29   ar
    44    29    30   ar
    45    29    31    1
    46    30    33    1
    47    31    32    1
    48    32    33    1
    49    32    35    1
    50    34    97    1
    51    34    98    1
    52    34    99    1
    53    35    61    1
    54    36    37    1
    55    36    60    1
    56    37    38    1
    57    38    39    1
    58    39    40    1
    59    40    41    1
    60    41    42    1
    61    45   100    1
    62    47   101    1
    63    47   102    1
    64    47   103    1
    65    48   104    1
    66    49   105    1
    67    49   106    1
    68    49   107    1
    69    50   108    1
    70    51    59    1
    71    52   109    1
    72    52   110    1
    73    52   111    1
    74    53    54    1
    75    54    55    2
    76    54    56    1
    77    56   112    1
    78    56   113    1
    79    56   114    1
    80    57   115    1
    81    57   116    1
    82    57   117    1
    83    58   118    1
    84    58   119    1
    85    58   120    1
    86    59   121    1
    87    59   122    1
    88    59   123    1
    89    60    61    2
    90     1    47    1
    91     1    62    1
    92     2    63    1
    93     3    64    1
    94     4    65    1
    95     5     6    1
    96     7     8    2
    97     9    78    1
    98    15    79    1
    99    18    80    1
   100    18    81    1
   101    19    82    1
   102    19    83    1
   103    20    23    1
   104    21    84    1
   105    21    85    1
   106    22    86    1
   107    22    87    1
   108    27    45    1
   109    28    34    1
   110    32    58    1
   111    33    46    2
   112    36    51    1
   113    36    66    1
   114    37    52    1
   115    37    67    1
   116    38    53    1
   117    38    68    1
   118    42    48    1
   119    42    72    1
   120    43    44    2
   121    60    73    1
   122    61    74    1
   123    39    69    1
   124    39    57    1
   125    40    70    1
   126    40    50    1
   127    41    71    1
   128    41    49    1
