@<TRIPOS>MOLECULE
*****
 123 128 0 0 0
SMALL
GASTEIGER

@<TRIPOS>ATOM
     1 C         2.175829   2.917948   -2.173098 C.3        1 UNL1     0.0009
     2 C         1.552844   4.534501   -2.833159 C.2        1 UNL1     -0.0787
     3 C         1.124406   5.355484   -3.946026 C.2        1 UNL1     -0.0649
     4 C         0.478894   6.919865   -3.897173 C.2        1 UNL1     -0.0542
     5 C         -0.280584   7.885052   -4.603349 C.2        1 UNL1     0.0115
     6 C         -0.909191   8.225822   -5.982498 C.3        1 UNL1     -0.0348
     7 C         -0.925912   9.11093   -3.792324 C.2        1 UNL1     0.2441
     8 O         -0.447566   10.23685   -3.796454 O.2        1 UNL1     -0.2702
     9 N         -2.21687   8.870613   -3.290501 N.am        1 UNL1     -0.2772
     10 C         -2.147543   8.294546   -2.042838 C.2        1 UNL1     0.1049
     11 C         -1.964298   6.98693   -2.014871 C.2        1 UNL1     0.0801
     12 C         -1.055206   8.534266   0.194721 C.ar        1 UNL1     0.0753
     13 C         -0.697005   7.15323   0.080517 C.ar        1 UNL1     0.0305
     14 C         -1.254379   6.302415   -0.968529 C.2        1 UNL1     0.0924
     15 N         -2.041206   6.082499   -3.006142 N.pl3        1 UNL1     -0.3170
     16 C         -1.925946   4.774617   -2.417572 C.3        1 UNL1     0.1275
     17 N         -1.114105   4.994414   -1.164445 N.2        1 UNL1     -0.2557
     18 C         -3.319697   4.363617   -1.952557 C.3        1 UNL1     0.0016
     19 C         -4.269195   4.437243   -3.137724 C.3        1 UNL1     0.0026
     20 N         -3.782208   3.547938   -4.183195 N.3        1 UNL1     -0.3018
     21 C         -2.423475   3.826206   -4.653068 C.3        1 UNL1     0.0026
     22 C         -1.485889   3.74239   -3.447331 C.3        1 UNL1     0.0016
     23 C         -4.760955   3.314901   -5.226455 C.3        1 UNL1     0.0012
     24 C         -4.937433   1.808244   -5.472619 C.3        1 UNL1     -0.0339
     25 C         -4.053665   0.976825   -4.528292 C.3        1 UNL1     -0.0615
     26 C         -6.402459   1.428033   -5.346454 C.3        1 UNL1     -0.0615
     27 C         -0.615441   9.30772   1.266399 C.ar        1 UNL1     0.1347
     28 C         0.150971   8.80285   2.301663 C.ar        1 UNL1     0.0342
     29 C         0.532164   7.453531   2.142944 C.ar        1 UNL1     0.1435
     30 C         0.129214   6.676201   1.056385 C.ar        1 UNL1     0.0774
     31 O         1.186428   6.78658   3.118712 O.3        1 UNL1     -0.4436
     32 C         0.97558   5.399616   2.814169 C.3        1 UNL1     0.3143
     33 C         0.671297   5.361688   1.330192 C.2        1 UNL1     0.2504
     34 C         0.447081   9.499586   3.6005 C.3        1 UNL1     -0.0327
     35 O         2.227252   4.727475   3.000701 O.2        1 UNL1     -0.4528
     36 C         1.359526   1.183797   4.048311 C.3        1 UNL1     0.0854
     37 C         0.479074   0.110774   3.299346 C.3        1 UNL1     0.0236
     38 C         1.205573   -1.294241   3.035005 C.3        1 UNL1     0.1131
     39 C         2.635135   -1.323904   2.35844 C.3        1 UNL1     0.0200
     40 C         2.970027   -0.347833   1.047879 C.3        1 UNL1     0.0661
     41 C         2.020147   -0.200529   -0.349848 C.3        1 UNL1     0.0091
     42 C         1.74535   1.237053   -1.455853 C.3        1 UNL1     0.0661
     43 C         -1.984262   9.092845   -0.818741 C.2        1 UNL1     0.2131
     44 O         -2.661326   10.088124   -0.635056 O.2        1 UNL1     -0.2851
     45 O         -0.971182   10.654842   1.27857 O.3        1 UNL1     -0.5056
     46 O         0.855599   4.457796   0.546058 O.2        1 UNL1     -0.2836
     47 C         3.678424   2.737372   -2.518906 C.3        1 UNL1     -0.0566
     48 O         1.965561   0.46483   -2.702566 O.3        1 UNL1     -0.3909
     49 C         0.665765   -0.820249   -0.086996 C.3        1 UNL1     -0.0577
     50 O         3.40706   0.927745   1.471704 O.3        1 UNL1     -0.3910
     51 O         2.715335   0.846012   4.235702 O.3        1 UNL1     -0.3753
     52 C         -0.46675   0.769274   2.242585 C.3        1 UNL1     -0.0564
     53 O         0.261409   -2.39553   2.65024 O.3        1 UNL1     -0.4608
     54 C         -1.007407   -2.220992   2.162825 C.2        1 UNL1     0.3042
     55 O         -1.424756   -2.516264   1.043685 O.2        1 UNL1     -0.2512
     56 C         -1.965802   -1.652622   3.17037 C.3        1 UNL1     0.0332
     57 C         3.721662   -1.397527   3.529855 C.3        1 UNL1     -0.0567
     58 C         -0.288271   4.967827   3.593764 C.3        1 UNL1     0.0210
     59 C         3.074288   0.531117   5.580269 C.3        1 UNL1     0.0372
     60 C         1.335392   2.546042   3.449256 C.2        1 UNL1     -0.0208
     61 C         2.32993   3.3999   3.203158 C.2        1 UNL1     0.0882
     62 H         2.135952   3.337833   -1.160765 H        1 UNL1     0.0365
     63 H         1.564003   5.142604   -1.92621 H        1 UNL1     0.0576
     64 H         1.028732   4.947598   -4.95478 H        1 UNL1     0.0615
     65 H         0.695469   7.259524   -2.880703 H        1 UNL1     0.0622
     66 H         0.892419   1.281706   5.038397 H        1 UNL1     0.0645
     67 H         -0.286005   -0.174114   4.042349 H        1 UNL1     0.0362
     68 H         1.368265   -1.615743   4.075048 H        1 UNL1     0.0741
     69 H         2.814331   -2.316361   1.96687 H        1 UNL1     0.0359
     70 H         3.885415   -0.842594   0.670605 H        1 UNL1     0.0600
     71 H         2.492621   -0.973681   -0.986999 H        1 UNL1     0.0348
     72 H         2.669427   1.453933   -0.900552 H        1 UNL1     0.0602
     73 H         0.327323   2.856359   3.327815 H        1 UNL1     0.0628
     74 H         3.388733   3.142551   3.247279 H        1 UNL1     0.1022
     75 H         -0.123414   8.571069   -6.696915 H        1 UNL1     0.0279
     76 H         -1.370759   7.401929   -6.522152 H        1 UNL1     0.0279
     77 H         -1.568463   9.105343   -5.943711 H        1 UNL1     0.0279
     78 H         -2.705746   8.219799   -3.901663 H        1 UNL1     0.1553
     79 H         -2.514513   6.247753   -3.875397 H        1 UNL1     0.1484
     80 H         -3.273768   3.349087   -1.53857 H        1 UNL1     0.0317
     81 H         -3.671162   5.015741   -1.145799 H        1 UNL1     0.0317
     82 H         -4.375189   5.466429   -3.511159 H        1 UNL1     0.0428
     83 H         -5.257352   4.142008   -2.783561 H        1 UNL1     0.0428
     84 H         -2.052612   3.096641   -5.379708 H        1 UNL1     0.0428
     85 H         -2.363216   4.786154   -5.18428 H        1 UNL1     0.0428
     86 H         -0.491922   3.818449   -3.847622 H        1 UNL1     0.0317
     87 H         -1.511623   2.731599   -3.022203 H        1 UNL1     0.0317
     88 H         -5.721219   3.729317   -4.892618 H        1 UNL1     0.0429
     89 H         -4.489255   3.838239   -6.152236 H        1 UNL1     0.0429
     90 H         -4.656235   1.57795   -6.507079 H        1 UNL1     0.0308
     91 H         -3.349294   0.354235   -5.088064 H        1 UNL1     0.0233
     92 H         -3.496739   1.626223   -3.84879 H        1 UNL1     0.0233
     93 H         -4.640375   0.30158   -3.893744 H        1 UNL1     0.0233
     94 H         -6.50238   0.343732   -5.227532 H        1 UNL1     0.0233
     95 H         -6.837733   1.905474   -4.4641 H        1 UNL1     0.0233
     96 H         -6.971262   1.732706   -6.229408 H        1 UNL1     0.0233
     97 H         -0.114537   9.075617   4.427582 H        1 UNL1     0.0280
     98 H         1.50498   9.41765   3.882268 H        1 UNL1     0.0280
     99 H         0.184085   10.566662   3.515203 H        1 UNL1     0.0280
     100 H         -1.886214   10.816821   1.427237 H        1 UNL1     0.2922
     101 H         3.945361   1.68249   -2.458705 H        1 UNL1     0.0236
     102 H         4.33554   3.360731   -1.913426 H        1 UNL1     0.0236
     103 H         3.900945   3.02336   -3.560485 H        1 UNL1     0.0236
     104 H         2.053205   -0.476422   -2.454909 H        1 UNL1     0.2098
     105 H         0.302057   -1.460609   -0.886664 H        1 UNL1     0.0234
     106 H         0.575688   -1.327308   0.873579 H        1 UNL1     0.0234
     107 H         0.0   0.0   0.0 H        1 UNL1     0.0234
     108 H         3.620639   1.442485   0.66971 H        1 UNL1     0.2098
     109 H         -1.443647   0.268706   2.189514 H        1 UNL1     0.0234
     110 H         -0.613306   1.842436   2.405642 H        1 UNL1     0.0234
     111 H         -0.046401   0.708854   1.229865 H        1 UNL1     0.0234
     112 H         -2.66605   -0.972744   2.675635 H        1 UNL1     0.0342
     113 H         -2.496724   -2.431648   3.715425 H        1 UNL1     0.0342
     114 H         -1.389196   -1.068983   3.901162 H        1 UNL1     0.0342
     115 H         4.597936   -1.992304   3.237325 H        1 UNL1     0.0234
     116 H         4.082866   -0.422293   3.862269 H        1 UNL1     0.0234
     117 H         3.374078   -1.952791   4.418004 H        1 UNL1     0.0234
     118 H         -0.038624   4.390278   4.501023 H        1 UNL1     0.0309
     119 H         -0.930799   5.809675   3.870628 H        1 UNL1     0.0309
     120 H         -0.920094   4.279358   3.021998 H        1 UNL1     0.0309
     121 H         2.153125   0.351993   6.134101 H        1 UNL1     0.0524
     122 H         3.685007   -0.384658   5.646721 H        1 UNL1     0.0524
     123 H         3.624897   1.355156   6.02511 H        1 UNL1     0.0524
@<TRIPOS>BOND
     1     1     2    1
     2     1    42    1
     3     2     3    2
     4     3     4    1
     5     4     5    2
     6     5     7    1
     7     6    75    1
     8     6    76    1
     9     6    77    1
    10     7     9   am
    11     9    10    1
    12    10    11    2
    13    10    43    1
    14    11    14    1
    15    11    15    1
    16    12    13   ar
    17    12    27   ar
    18    12    43    1
    19    13    14    1
    20    13    30   ar
    21    14    17    2
    22    15    16    1
    23    16    17    1
    24    16    18    1
    25    16    22    1
    26    18    19    1
    27    19    20    1
    28    20    21    1
    29    21    22    1
    30    23    24    1
    31    23    88    1
    32    23    89    1
    33    24    25    1
    34    24    26    1
    35    24    90    1
    36    25    91    1
    37    25    92    1
    38    25    93    1
    39    26    94    1
    40    26    95    1
    41    26    96    1
    42    27    28   ar
    43    28    29   ar
    44    29    30   ar
    45    29    31    1
    46    30    33    1
    47    31    32    1
    48    32    33    1
    49    32    35    1
    50    34    97    1
    51    34    98    1
    52    34    99    1
    53    35    61    1
    54    36    37    1
    55    36    60    1
    56    37    38    1
    57    38    39    1
    58    39    40    1
    59    40    41    1
    60    41    42    1
    61    45   100    1
    62    47   101    1
    63    47   102    1
    64    47   103    1
    65    48   104    1
    66    49   105    1
    67    49   106    1
    68    49   107    1
    69    50   108    1
    70    51    59    1
    71    52   109    1
    72    52   110    1
    73    52   111    1
    74    53    54    1
    75    54    55    2
    76    54    56    1
    77    56   112    1
    78    56   113    1
    79    56   114    1
    80    57   115    1
    81    57   116    1
    82    57   117    1
    83    58   118    1
    84    58   119    1
    85    58   120    1
    86    59   121    1
    87    59   122    1
    88    59   123    1
    89    60    61    2
    90     1    47    1
    91     1    62    1
    92     2    63    1
    93     3    64    1
    94     4    65    1
    95     5     6    1
    96     7     8    2
    97     9    78    1
    98    15    79    1
    99    18    80    1
   100    18    81    1
   101    19    82    1
   102    19    83    1
   103    20    23    1
   104    21    84    1
   105    21    85    1
   106    22    86    1
   107    22    87    1
   108    27    45    1
   109    28    34    1
   110    32    58    1
   111    33    46    2
   112    36    51    1
   113    36    66    1
   114    37    52    1
   115    37    67    1
   116    38    53    1
   117    38    68    1
   118    42    48    1
   119    42    72    1
   120    43    44    2
   121    60    73    1
   122    61    74    1
   123    39    69    1
   124    39    57    1
   125    40    70    1
   126    40    50    1
   127    41    71    1
   128    41    49    1
