@<TRIPOS>MOLECULE
*****
 123 128 0 0 0
SMALL
GASTEIGER

@<TRIPOS>ATOM
     1 C         4.974012   2.235048   0.524869 C.3        1 UNL1     0.0009
     2 C         6.361596   3.110205   -0.338696 C.2        1 UNL1     -0.0787
     3 C         7.673552   3.087196   -0.950487 C.2        1 UNL1     -0.0649
     4 C         8.460171   4.340459   -1.773238 C.2        1 UNL1     -0.0542
     5 C         9.485851   4.658482   -2.697316 C.2        1 UNL1     0.0115
     6 C         10.703416   4.081837   -3.47084 C.3        1 UNL1     -0.0348
     7 C         9.464788   6.092703   -3.418116 C.2        1 UNL1     0.2441
     8 O         10.190372   7.017896   -3.080371 O.2        1 UNL1     -0.2702
     9 N         8.747576   6.134131   -4.626438 N.am        1 UNL1     -0.2772
     10 C         7.421972   6.416143   -4.388607 C.2        1 UNL1     0.1049
     11 C         6.661026   5.391866   -4.047961 C.2        1 UNL1     0.0801
     12 C         5.919149   7.991679   -3.157127 C.ar        1 UNL1     0.0753
     13 C         5.252885   6.832633   -2.645938 C.ar        1 UNL1     0.0305
     14 C         5.520201   5.498824   -3.179367 C.2        1 UNL1     0.0924
     15 N         6.916007   4.073037   -4.09489 N.pl3        1 UNL1     -0.3170
     16 C         5.696946   3.378202   -3.776539 C.3        1 UNL1     0.1275
     17 N         4.932404   4.339127   -2.899144 N.2        1 UNL1     -0.2557
     18 C         4.895594   3.255645   -5.069023 C.3        1 UNL1     0.0016
     19 C         5.758365   2.563895   -6.11243 C.3        1 UNL1     0.0026
     20 N         6.1421   1.252842   -5.607538 N.3        1 UNL1     -0.3018
     21 C         6.865093   1.264209   -4.334149 C.3        1 UNL1     0.0026
     22 C         5.978292   1.959408   -3.299656 C.3        1 UNL1     0.0016
     23 C         6.70827   0.397713   -6.631672 C.3        1 UNL1     0.0012
     24 C         8.2137   0.198626   -6.395446 C.3        1 UNL1     -0.0339
     25 C         8.979937   0.076607   -7.722868 C.3        1 UNL1     -0.0615
     26 C         8.759627   1.325958   -5.536456 C.3        1 UNL1     -0.0615
     27 C         5.572589   9.271011   -2.728964 C.ar        1 UNL1     0.1347
     28 C         4.553182   9.51842   -1.826939 C.ar        1 UNL1     0.0342
     29 C         3.944188   8.359531   -1.300377 C.ar        1 UNL1     0.1435
     30 C         4.305394   7.070064   -1.692837 C.ar        1 UNL1     0.0774
     31 O         2.862554   8.435924   -0.494623 O.3        1 UNL1     -0.4436
     32 C         2.267947   7.130971   -0.561065 C.3        1 UNL1     0.3143
     33 C         3.392346   6.203992   -0.976577 C.2        1 UNL1     0.2504
     34 C         3.960503   10.864   -1.513498 C.3        1 UNL1     -0.0327
     35 O         1.896111   6.763856   0.773182 O.2        1 UNL1     -0.4528
     36 C         -1.129145   4.497989   0.424236 C.3        1 UNL1     0.0854
     37 C         -1.275613   3.148073   -0.378134 C.3        1 UNL1     0.0236
     38 C         -1.78571   1.898763   0.488335 C.3        1 UNL1     0.1131
     39 C         -1.067438   1.543597   1.852231 C.3        1 UNL1     0.0200
     40 C         0.596915   1.565348   1.961287 C.3        1 UNL1     0.0661
     41 C         1.672792   0.806473   0.89161 C.3        1 UNL1     0.0091
     42 C         3.360101   1.290211   0.358329 C.3        1 UNL1     0.0661
     43 C         6.930386   7.79232   -4.224795 C.2        1 UNL1     0.2131
     44 O         7.272535   8.667167   -4.999594 O.2        1 UNL1     -0.2851
     45 O         6.301057   10.342339   -3.241826 O.3        1 UNL1     -0.5056
     46 O         3.517295   5.021529   -0.748493 O.2        1 UNL1     -0.2836
     47 C         5.349336   1.958789   2.005678 C.3        1 UNL1     -0.0566
     48 O         3.937066   -0.059539   0.569043 O.3        1 UNL1     -0.3909
     49 C         0.916746   0.398182   -0.353054 C.3        1 UNL1     -0.0577
     50 O         1.061712   2.862882   2.274486 O.3        1 UNL1     -0.3910
     51 O         -1.292326   4.404989   1.821431 O.3        1 UNL1     -0.3753
     52 C         -0.173657   3.002396   -1.47787 C.3        1 UNL1     -0.0564
     53 O         -2.248851   0.739349   -0.344483 O.3        1 UNL1     -0.4608
     54 C         -2.056366   -0.583473   -0.042787 C.2        1 UNL1     0.3042
     55 O         -1.227463   -1.348612   -0.53403 O.2        1 UNL1     -0.2512
     56 C         -2.94867   -1.08562   1.056466 C.3        1 UNL1     0.0332
     57 C         -1.900599   2.233943   3.030128 C.3        1 UNL1     -0.0567
     58 C         1.220285   7.184999   -1.697294 C.3        1 UNL1     0.0210
     59 C         -2.506696   4.962746   2.32151 C.3        1 UNL1     0.0372
     60 C         0.142416   5.234743   0.188684 C.2        1 UNL1     -0.0208
     61 C         0.972907   5.823228   1.050493 C.2        1 UNL1     0.0882
     62 H         4.403426   3.171566   0.516133 H        1 UNL1     0.0365
     63 H         5.992179   4.137769   -0.32799 H        1 UNL1     0.0576
     64 H         8.22988   2.155749   -1.077034 H        1 UNL1     0.0615
     65 H         7.874243   5.227673   -1.518243 H        1 UNL1     0.0622
     66 H         -1.927894   5.141683   0.029643 H        1 UNL1     0.0645
     67 H         -2.14052   3.32293   -1.0414 H        1 UNL1     0.0362
     68 H         -2.78383   2.266451   0.771327 H        1 UNL1     0.0741
     69 H         -1.309116   0.522961   2.117376 H        1 UNL1     0.0359
     70 H         0.734291   0.989151   2.896265 H        1 UNL1     0.0600
     71 H         1.795533   -0.169483   1.400924 H        1 UNL1     0.0348
     72 H         3.167662   1.839812   1.291185 H        1 UNL1     0.0602
     73 H         0.283969   5.362025   -0.855831 H        1 UNL1     0.0628
     74 H         0.931055   5.69505   2.132647 H        1 UNL1     0.1022
     75 H         11.364163   3.499711   -2.784125 H        1 UNL1     0.0279
     76 H         10.483086   3.358643   -4.252833 H        1 UNL1     0.0279
     77 H         11.392163   4.863482   -3.823488 H        1 UNL1     0.0279
     78 H         8.790454   5.224402   -5.081008 H        1 UNL1     0.1553
     79 H         7.644037   3.666015   -4.652778 H        1 UNL1     0.1484
     80 H         3.978136   2.689225   -4.868512 H        1 UNL1     0.0317
     81 H         4.582856   4.241144   -5.430461 H        1 UNL1     0.0317
     82 H         6.643767   3.163207   -6.370886 H        1 UNL1     0.0428
     83 H         5.168383   2.488457   -7.026367 H        1 UNL1     0.0428
     84 H         7.071122   0.265077   -3.937791 H        1 UNL1     0.0428
     85 H         7.85893   1.722409   -4.432427 H        1 UNL1     0.0428
     86 H         6.478022   1.831748   -2.357339 H        1 UNL1     0.0317
     87 H         5.044372   1.399071   -3.169613 H        1 UNL1     0.0317
     88 H         6.21286   -0.580215   -6.572339 H        1 UNL1     0.0429
     89 H         6.514297   0.796103   -7.63588 H        1 UNL1     0.0429
     90 H         8.368154   -0.720174   -5.817376 H        1 UNL1     0.0308
     91 H         8.670574   0.849198   -8.433149 H        1 UNL1     0.0233
     92 H         10.056856   0.153582   -7.555747 H        1 UNL1     0.0233
     93 H         8.814904   -0.890558   -8.212961 H        1 UNL1     0.0233
     94 H         9.841603   1.419649   -5.679238 H        1 UNL1     0.0233
     95 H         8.297969   2.273946   -5.826546 H        1 UNL1     0.0233
     96 H         8.565196   1.148893   -4.474942 H        1 UNL1     0.0233
     97 H         2.893965   10.89644   -1.715178 H        1 UNL1     0.0280
     98 H         4.074307   11.129778   -0.45441 H        1 UNL1     0.0280
     99 H         4.452022   11.635954   -2.127983 H        1 UNL1     0.0280
     100 H         7.234203   10.260134   -3.151804 H        1 UNL1     0.2922
     101 H         4.82142   2.65676   2.655138 H        1 UNL1     0.0236
     102 H         6.42407   1.966994   2.184181 H        1 UNL1     0.0236
     103 H         5.016889   0.961169   2.337982 H        1 UNL1     0.0236
     104 H         3.530958   -0.431142   1.376482 H        1 UNL1     0.2098
     105 H         0.685299   1.218851   -1.027403 H        1 UNL1     0.0234
     106 H         1.361207   -0.430143   -0.904653 H        1 UNL1     0.0234
     107 H         0.0   -0.0   0.0 H        1 UNL1     0.0234
     108 H         0.970512   3.406202   1.468103 H        1 UNL1     0.2098
     109 H         -0.220916   3.808382   -2.223433 H        1 UNL1     0.0234
     110 H         0.839728   2.942756   -1.066485 H        1 UNL1     0.0234
     111 H         -0.286964   2.067679   -2.043035 H        1 UNL1     0.0234
     112 H         -2.730392   -2.138081   1.261467 H        1 UNL1     0.0342
     113 H         -2.861898   -0.485255   1.96083 H        1 UNL1     0.0342
     114 H         -3.989518   -1.018628   0.711048 H        1 UNL1     0.0342
     115 H         -1.878318   1.635405   3.951238 H        1 UNL1     0.0234
     116 H         -1.560513   3.239917   3.283911 H        1 UNL1     0.0234
     117 H         -2.985381   2.280865   2.832674 H        1 UNL1     0.0234
     118 H         0.187171   7.131348   -1.311544 H        1 UNL1     0.0309
     119 H         1.320061   8.071303   -2.33189 H        1 UNL1     0.0309
     120 H         1.284096   6.322171   -2.369277 H        1 UNL1     0.0309
     121 H         -2.333821   5.253945   3.35721 H        1 UNL1     0.0524
     122 H         -2.810503   5.867227   1.768652 H        1 UNL1     0.0524
     123 H         -3.307225   4.230463   2.266661 H        1 UNL1     0.0524
@<TRIPOS>BOND
     1     1     2    1
     2     1    42    1
     3     2     3    2
     4     3     4    1
     5     4     5    2
     6     5     7    1
     7     6    75    1
     8     6    76    1
     9     6    77    1
    10     7     9   am
    11     9    10    1
    12    10    11    2
    13    10    43    1
    14    11    14    1
    15    11    15    1
    16    12    13   ar
    17    12    27   ar
    18    12    43    1
    19    13    14    1
    20    13    30   ar
    21    14    17    2
    22    15    16    1
    23    16    17    1
    24    16    18    1
    25    16    22    1
    26    18    19    1
    27    19    20    1
    28    20    21    1
    29    21    22    1
    30    23    24    1
    31    23    88    1
    32    23    89    1
    33    24    25    1
    34    24    26    1
    35    24    90    1
    36    25    91    1
    37    25    92    1
    38    25    93    1
    39    26    94    1
    40    26    95    1
    41    26    96    1
    42    27    28   ar
    43    28    29   ar
    44    29    30   ar
    45    29    31    1
    46    30    33    1
    47    31    32    1
    48    32    33    1
    49    32    35    1
    50    34    97    1
    51    34    98    1
    52    34    99    1
    53    35    61    1
    54    36    37    1
    55    36    60    1
    56    37    38    1
    57    38    39    1
    58    39    40    1
    59    40    41    1
    60    41    42    1
    61    45   100    1
    62    47   101    1
    63    47   102    1
    64    47   103    1
    65    48   104    1
    66    49   105    1
    67    49   106    1
    68    49   107    1
    69    50   108    1
    70    51    59    1
    71    52   109    1
    72    52   110    1
    73    52   111    1
    74    53    54    1
    75    54    55    2
    76    54    56    1
    77    56   112    1
    78    56   113    1
    79    56   114    1
    80    57   115    1
    81    57   116    1
    82    57   117    1
    83    58   118    1
    84    58   119    1
    85    58   120    1
    86    59   121    1
    87    59   122    1
    88    59   123    1
    89    60    61    2
    90     1    47    1
    91     1    62    1
    92     2    63    1
    93     3    64    1
    94     4    65    1
    95     5     6    1
    96     7     8    2
    97     9    78    1
    98    15    79    1
    99    18    80    1
   100    18    81    1
   101    19    82    1
   102    19    83    1
   103    20    23    1
   104    21    84    1
   105    21    85    1
   106    22    86    1
   107    22    87    1
   108    27    45    1
   109    28    34    1
   110    32    58    1
   111    33    46    2
   112    36    51    1
   113    36    66    1
   114    37    52    1
   115    37    67    1
   116    38    53    1
   117    38    68    1
   118    42    48    1
   119    42    72    1
   120    43    44    2
   121    60    73    1
   122    61    74    1
   123    39    69    1
   124    39    57    1
   125    40    70    1
   126    40    50    1
   127    41    71    1
   128    41    49    1
