@<TRIPOS>MOLECULE
*****
 123 128 0 0 0
SMALL
GASTEIGER

@<TRIPOS>ATOM
     1 C         5.140546   0.542091   1.81113 C.3        1 UNL1     0.0009
     2 C         6.897907   0.919375   1.35684 C.2        1 UNL1     -0.0787
     3 C         8.241881   0.471587   1.058067 C.2        1 UNL1     -0.0649
     4 C         9.557109   1.401978   0.537581 C.2        1 UNL1     -0.0542
     5 C         10.820896   1.370449   -0.101894 C.2        1 UNL1     0.0115
     6 C         11.942277   0.430246   -0.62328 C.3        1 UNL1     -0.0348
     7 C         11.427318   2.734738   -0.691772 C.2        1 UNL1     0.2441
     8 O         12.304389   3.372598   -0.125726 O.2        1 UNL1     -0.2702
     9 N         11.072037   3.009752   -2.023799 N.am        1 UNL1     -0.2772
     10 C         9.887058   3.707584   -2.070443 C.2        1 UNL1     0.1049
     11 C         8.783405   2.986261   -1.993855 C.2        1 UNL1     0.0801
     12 C         8.709196   5.68425   -1.089235 C.ar        1 UNL1     0.0753
     13 C         7.608984   4.804347   -0.83643 C.ar        1 UNL1     0.0305
     14 C         7.561386   3.457207   -1.400344 C.2        1 UNL1     0.0924
     15 N         8.612433   1.656372   -2.087089 N.pl3        1 UNL1     -0.3170
     16 C         7.197574   1.395749   -2.109514 C.3        1 UNL1     0.1275
     17 N         6.588442   2.551579   -1.354042 N.2        1 UNL1     -0.2557
     18 C         6.73349   1.543275   -3.555393 C.3        1 UNL1     0.0016
     19 C         7.557616   0.610282   -4.428279 C.3        1 UNL1     0.0026
     20 N         7.374836   -0.755233   -3.95606 N.3        1 UNL1     -0.3018
     21 C         7.736471   -0.982337   -2.555342 C.3        1 UNL1     0.0026
     22 C         6.893514   -0.038241   -1.696273 C.3        1 UNL1     0.0016
     23 C         7.870481   -1.746158   -4.89043 C.3        1 UNL1     0.0012
     24 C         6.976304   -1.803921   -6.138976 C.3        1 UNL1     -0.0339
     25 C         7.540894   -0.936037   -7.275669 C.3        1 UNL1     -0.0615
     26 C         6.786929   -3.245612   -6.577664 C.3        1 UNL1     -0.0615
     27 C         8.692119   7.005887   -0.649801 C.ar        1 UNL1     0.1347
     28 C         7.617874   7.57003   0.014872 C.ar        1 UNL1     0.0342
     29 C         6.566594   6.671598   0.295577 C.ar        1 UNL1     0.1435
     30 C         6.585347   5.335541   -0.106693 C.ar        1 UNL1     0.0774
     31 O         5.404349   7.094491   0.839043 O.3        1 UNL1     -0.4436
     32 C         4.462515   6.054402   0.535666 C.3        1 UNL1     0.3143
     33 C         5.301842   4.81261   0.312739 C.2        1 UNL1     0.2504
     34 C         7.423308   9.034664   0.292524 C.3        1 UNL1     -0.0327
     35 O         3.685006   5.825826   1.717396 O.2        1 UNL1     -0.4528
     36 C         0.276305   4.669201   0.512794 C.3        1 UNL1     0.0854
     37 C         -0.091676   3.442082   -0.407146 C.3        1 UNL1     0.0236
     38 C         -1.162302   2.425305   0.218688 C.3        1 UNL1     0.1131
     39 C         -0.942429   1.853009   1.676907 C.3        1 UNL1     0.0200
     40 C         0.566146   1.33142   2.161248 C.3        1 UNL1     0.0661
     41 C         1.571021   0.265619   1.305733 C.3        1 UNL1     0.0091
     42 C         3.400689   0.174589   1.208635 C.3        1 UNL1     0.0661
     43 C         9.830871   5.168515   -1.912718 C.2        1 UNL1     0.2131
     44 O         10.60711   5.88575   -2.517503 O.2        1 UNL1     -0.2851
     45 O         9.822148   7.782602   -0.89716 O.3        1 UNL1     -0.5056
     46 O         4.988531   3.653472   0.467942 O.2        1 UNL1     -0.2836
     47 C         5.042436   0.15585   3.311521 C.3        1 UNL1     -0.0566
     48 O         3.453695   -1.289872   1.435923 O.3        1 UNL1     -0.3909
     49 C         1.046853   0.128139   -0.106301 C.3        1 UNL1     -0.0577
     50 O         1.32724   2.406292   2.67419 O.3        1 UNL1     -0.3910
     51 O         -0.238236   4.631738   1.824768 O.3        1 UNL1     -0.3753
     52 C         1.137923   2.947624   -1.236934 C.3        1 UNL1     -0.0564
     53 O         -1.753546   1.481477   -0.787268 O.3        1 UNL1     -0.4608
     54 C         -2.367338   0.291343   -0.496114 C.2        1 UNL1     0.3042
     55 O         -1.961874   -0.841087   -0.755034 O.2        1 UNL1     -0.2512
     56 C         -3.647399   0.447549   0.274443 C.3        1 UNL1     0.0332
     57 C         -1.772099   2.774776   2.68694 C.3        1 UNL1     -0.0567
     58 C         3.790551   6.448794   -0.800166 C.3        1 UNL1     0.0210
     59 C         -0.458911   5.910137   2.418792 C.3        1 UNL1     0.0372
     60 C         1.732717   4.952205   0.630832 C.2        1 UNL1     -0.0208
     61 C         2.474008   5.236548   1.702457 C.2        1 UNL1     0.0882
     62 H         4.91447   1.613379   1.748334 H        1 UNL1     0.0365
     63 H         6.880577   2.011204   1.36573 H        1 UNL1     0.0576
     64 H         8.488943   -0.590004   0.986713 H        1 UNL1     0.0615
     65 H         9.238079   2.431141   0.723394 H        1 UNL1     0.0622
     66 H         -0.159039   5.538655   0.000377 H        1 UNL1     0.0645
     67 H         -0.671258   3.890305   -1.232822 H        1 UNL1     0.0362
     68 H         -2.030444   3.097421   0.296858 H        1 UNL1     0.0741
     69 H         -1.550117   0.966188   1.79803 H        1 UNL1     0.0359
     70 H         0.285938   0.740109   3.053938 H        1 UNL1     0.0600
     71 H         1.253365   -0.698086   1.749946 H        1 UNL1     0.0348
     72 H         3.173597   0.755118   2.114577 H        1 UNL1     0.0602
     73 H         2.153569   5.028451   -0.340929 H        1 UNL1     0.0628
     74 H         2.135366   5.126919   2.733253 H        1 UNL1     0.1022
     75 H         11.674102   -0.638363   -0.44109 H        1 UNL1     0.0279
     76 H         12.128993   0.44552   -1.694715 H        1 UNL1     0.0279
     77 H         12.875054   0.520863   -0.047592 H        1 UNL1     0.0279
     78 H         10.933343   2.136511   -2.528071 H        1 UNL1     0.1553
     79 H         9.286201   1.035537   -2.496397 H        1 UNL1     0.1484
     80 H         5.664327   1.306085   -3.613682 H        1 UNL1     0.0317
     81 H         6.844244   2.577587   -3.898297 H        1 UNL1     0.0317
     82 H         8.621644   0.889119   -4.430868 H        1 UNL1     0.0428
     83 H         7.211578   0.73281   -5.455068 H        1 UNL1     0.0428
     84 H         7.515071   -1.994858   -2.203781 H        1 UNL1     0.0428
     85 H         8.817048   -0.872534   -2.389169 H        1 UNL1     0.0428
     86 H         7.085776   -0.323464   -0.678593 H        1 UNL1     0.0317
     87 H         5.828074   -0.264183   -1.826209 H        1 UNL1     0.0317
     88 H         8.881745   -1.449661   -5.198211 H        1 UNL1     0.0429
     89 H         7.954612   -2.733145   -4.417616 H        1 UNL1     0.0429
     90 H         5.976207   -1.435235   -5.8819 H        1 UNL1     0.0308
     91 H         8.556391   -1.242839   -7.543513 H        1 UNL1     0.0233
     92 H         6.903024   -0.995784   -8.160633 H        1 UNL1     0.0233
     93 H         7.590211   0.125733   -7.005394 H        1 UNL1     0.0233
     94 H         6.314819   -3.280933   -7.565439 H        1 UNL1     0.0233
     95 H         7.757298   -3.744757   -6.64977 H        1 UNL1     0.0233
     96 H         6.157536   -3.797473   -5.873901 H        1 UNL1     0.0233
     97 H         6.481528   9.232397   0.795696 H        1 UNL1     0.0280
     98 H         8.205231   9.438941   0.948582 H        1 UNL1     0.0280
     99 H         7.432048   9.594617   -0.656935 H        1 UNL1     0.0280
     100 H         9.650762   8.590785   -1.347815 H        1 UNL1     0.2922
     101 H         4.000833   -0.022261   3.577972 H        1 UNL1     0.0236
     102 H         5.515445   0.881188   3.972681 H        1 UNL1     0.0236
     103 H         5.553595   -0.797033   3.528139 H        1 UNL1     0.0236
     104 H         3.594523   -1.435067   2.391986 H        1 UNL1     0.2098
     105 H         1.213292   0.999968   -0.734013 H        1 UNL1     0.0234
     106 H         1.365192   -0.776531   -0.624142 H        1 UNL1     0.0234
     107 H         0.0   -0.0   0.0 H        1 UNL1     0.0234
     108 H         1.478273   3.031511   1.939304 H        1 UNL1     0.2098
     109 H         1.973075   2.632899   -0.595701 H        1 UNL1     0.0234
     110 H         0.889323   2.142229   -1.93642 H        1 UNL1     0.0234
     111 H         1.539376   3.74315   -1.878745 H        1 UNL1     0.0234
     112 H         -4.080105   -0.536129   0.480571 H        1 UNL1     0.0342
     113 H         -3.505231   1.01243   1.19452 H        1 UNL1     0.0342
     114 H         -4.35878   1.003993   -0.351233 H        1 UNL1     0.0342
     115 H         -2.847005   2.764997   2.459628 H        1 UNL1     0.0234
     116 H         -1.656006   2.499025   3.736955 H        1 UNL1     0.0234
     117 H         -1.543556   3.850091   2.589949 H        1 UNL1     0.0234
     118 H         2.962413   7.163893   -0.65243 H        1 UNL1     0.0309
     119 H         4.494449   6.861713   -1.529706 H        1 UNL1     0.0309
     120 H         3.305756   5.599385   -1.29371 H        1 UNL1     0.0309
     121 H         0.505369   6.413051   2.486607 H        1 UNL1     0.0524
     122 H         -1.122663   6.545723   1.809283 H        1 UNL1     0.0524
     123 H         -0.892047   5.795045   3.408358 H        1 UNL1     0.0524
@<TRIPOS>BOND
     1     1     2    1
     2     1    42    1
     3     2     3    2
     4     3     4    1
     5     4     5    2
     6     5     7    1
     7     6    75    1
     8     6    76    1
     9     6    77    1
    10     7     9   am
    11     9    10    1
    12    10    11    2
    13    10    43    1
    14    11    14    1
    15    11    15    1
    16    12    13   ar
    17    12    27   ar
    18    12    43    1
    19    13    14    1
    20    13    30   ar
    21    14    17    2
    22    15    16    1
    23    16    17    1
    24    16    18    1
    25    16    22    1
    26    18    19    1
    27    19    20    1
    28    20    21    1
    29    21    22    1
    30    23    24    1
    31    23    88    1
    32    23    89    1
    33    24    25    1
    34    24    26    1
    35    24    90    1
    36    25    91    1
    37    25    92    1
    38    25    93    1
    39    26    94    1
    40    26    95    1
    41    26    96    1
    42    27    28   ar
    43    28    29   ar
    44    29    30   ar
    45    29    31    1
    46    30    33    1
    47    31    32    1
    48    32    33    1
    49    32    35    1
    50    34    97    1
    51    34    98    1
    52    34    99    1
    53    35    61    1
    54    36    37    1
    55    36    60    1
    56    37    38    1
    57    38    39    1
    58    39    40    1
    59    40    41    1
    60    41    42    1
    61    45   100    1
    62    47   101    1
    63    47   102    1
    64    47   103    1
    65    48   104    1
    66    49   105    1
    67    49   106    1
    68    49   107    1
    69    50   108    1
    70    51    59    1
    71    52   109    1
    72    52   110    1
    73    52   111    1
    74    53    54    1
    75    54    55    2
    76    54    56    1
    77    56   112    1
    78    56   113    1
    79    56   114    1
    80    57   115    1
    81    57   116    1
    82    57   117    1
    83    58   118    1
    84    58   119    1
    85    58   120    1
    86    59   121    1
    87    59   122    1
    88    59   123    1
    89    60    61    2
    90     1    47    1
    91     1    62    1
    92     2    63    1
    93     3    64    1
    94     4    65    1
    95     5     6    1
    96     7     8    2
    97     9    78    1
    98    15    79    1
    99    18    80    1
   100    18    81    1
   101    19    82    1
   102    19    83    1
   103    20    23    1
   104    21    84    1
   105    21    85    1
   106    22    86    1
   107    22    87    1
   108    27    45    1
   109    28    34    1
   110    32    58    1
   111    33    46    2
   112    36    51    1
   113    36    66    1
   114    37    52    1
   115    37    67    1
   116    38    53    1
   117    38    68    1
   118    42    48    1
   119    42    72    1
   120    43    44    2
   121    60    73    1
   122    61    74    1
   123    39    69    1
   124    39    57    1
   125    40    70    1
   126    40    50    1
   127    41    71    1
   128    41    49    1
