@<TRIPOS>MOLECULE
*****
 123 128 0 0 0
SMALL
GASTEIGER

@<TRIPOS>ATOM
     1 C         5.17285   1.740455   0.457225 C.3        1 UNL1     0.0009
     2 C         6.607127   2.539633   -0.403704 C.2        1 UNL1     -0.0787
     3 C         7.884919   2.43555   -1.076357 C.2        1 UNL1     -0.0649
     4 C         8.761796   3.66572   -1.840638 C.2        1 UNL1     -0.0542
     5 C         9.777375   3.952434   -2.785875 C.2        1 UNL1     0.0115
     6 C         10.898771   3.32096   -3.655952 C.3        1 UNL1     -0.0348
     7 C         9.87375   5.433554   -3.397419 C.2        1 UNL1     0.2441
     8 O         10.702227   6.25384   -3.026904 O.2        1 UNL1     -0.2702
     9 N         9.117547   5.63925   -4.564465 N.am        1 UNL1     -0.2772
     10 C         7.837797   6.030762   -4.244651 C.2        1 UNL1     0.1049
     11 C         6.990753   5.062803   -3.944993 C.2        1 UNL1     0.0801
     12 C         6.552248   7.645599   -2.831499 C.ar        1 UNL1     0.0753
     13 C         5.792339   6.521347   -2.376302 C.ar        1 UNL1     0.0305
     14 C         5.901686   5.213352   -3.018363 C.2        1 UNL1     0.0924
     15 N         7.108468   3.732984   -4.100728 N.pl3        1 UNL1     -0.3170
     16 C         5.838607   3.138617   -3.777566 C.3        1 UNL1     0.1275
     17 N         5.210639   4.098735   -2.796978 N.2        1 UNL1     -0.2557
     18 C         4.978808   3.196447   -5.036575 C.3        1 UNL1     0.0016
     19 C         5.725231   2.50666   -6.167343 C.3        1 UNL1     0.0026
     20 N         5.993398   1.12892   -5.778824 N.3        1 UNL1     -0.3018
     21 C         6.763265   0.969965   -4.543345 C.3        1 UNL1     0.0026
     22 C         5.992955   1.666229   -3.420076 C.3        1 UNL1     0.0016
     23 C         6.429152   0.304685   -6.888508 C.3        1 UNL1     0.0012
     24 C         5.267425   0.055741   -7.863277 C.3        1 UNL1     -0.0339
     25 C         5.33905   0.998256   -9.075957 C.3        1 UNL1     -0.0615
     26 C         5.247917   -1.402123   -8.288755 C.3        1 UNL1     -0.0615
     27 C         6.354462   8.915534   -2.294597 C.ar        1 UNL1     0.1347
     28 C         5.401665   9.190891   -1.330021 C.ar        1 UNL1     0.0342
     29 C         4.699305   8.059971   -0.862183 C.ar        1 UNL1     0.1435
     30 C         4.912023   6.77576   -1.364951 C.ar        1 UNL1     0.0774
     31 O         3.663505   8.179274   -0.003177 O.3        1 UNL1     -0.4436
     32 C         2.937325   6.948221   -0.137503 C.3        1 UNL1     0.3143
     33 C         3.944598   5.950443   -0.672341 C.2        1 UNL1     0.2504
     34 C         4.961444   10.559671   -0.890992 C.3        1 UNL1     -0.0327
     35 O         2.582829   6.516606   1.182078 O.2        1 UNL1     -0.4528
     36 C         -0.668216   4.59306   0.809569 C.3        1 UNL1     0.0854
     37 C         -0.982393   3.330692   -0.082195 C.3        1 UNL1     0.0236
     38 C         -1.582274   2.073868   0.712966 C.3        1 UNL1     0.1131
     39 C         -0.850762   1.544687   2.01186 C.3        1 UNL1     0.0200
     40 C         0.810191   1.394235   2.04408 C.3        1 UNL1     0.0661
     41 C         1.760606   0.618959   0.872213 C.3        1 UNL1     0.0091
     42 C         3.466056   0.974628   0.29746 C.3        1 UNL1     0.0661
     43 C         7.495297   7.431619   -3.957168 C.2        1 UNL1     0.2131
     44 O         7.893808   8.326296   -4.680687 O.2        1 UNL1     -0.2851
     45 O         7.167234   9.94678   -2.76083 O.3        1 UNL1     -0.5056
     46 O         3.957702   4.747268   -0.537982 O.2        1 UNL1     -0.2836
     47 C         5.576056   1.314148   1.894469 C.3        1 UNL1     -0.0566
     48 O         3.910822   -0.437575   0.381017 O.3        1 UNL1     -0.3909
     49 C         0.91871   0.385133   -0.362303 C.3        1 UNL1     -0.0577
     50 O         1.416273   2.61146   2.429761 O.3        1 UNL1     -0.3910
     51 O         -0.784991   4.407991   2.202244 O.3        1 UNL1     -0.3753
     52 C         0.055027   3.163554   -1.240113 C.3        1 UNL1     -0.0564
     53 O         -2.193094   1.033986   -0.18027 O.3        1 UNL1     -0.4608
     54 C         -2.429514   -0.271011   0.164722 C.2        1 UNL1     0.3042
     55 O         -1.864894   -1.273086   -0.272185 O.2        1 UNL1     -0.2512
     56 C         -3.465451   -0.430359   1.240899 C.3        1 UNL1     0.0332
     57 C         -1.562611   2.219695   3.275113 C.3        1 UNL1     -0.0567
     58 C         1.856746   7.193272   -1.216313 C.3        1 UNL1     0.0210
     59 C         -1.090433   5.590186   2.940476 C.3        1 UNL1     0.0372
     60 C         0.661342   5.217407   0.569513 C.2        1 UNL1     -0.0208
     61 C         1.580498   5.652513   1.432403 C.2        1 UNL1     0.0882
     62 H         4.700401   2.726327   0.544173 H        1 UNL1     0.0365
     63 H         6.34466   3.59455   -0.30012 H        1 UNL1     0.0576
     64 H         8.338395   1.466649   -1.297031 H        1 UNL1     0.0615
     65 H         8.27945   4.583641   -1.493872 H        1 UNL1     0.0622
     66 H         -1.412359   5.340895   0.501282 H        1 UNL1     0.0645
     67 H         -1.850457   3.640819   -0.689523 H        1 UNL1     0.0362
     68 H         -2.526013   2.514684   1.06872 H        1 UNL1     0.0741
     69 H         -1.184219   0.535198   2.21223 H        1 UNL1     0.0359
     70 H         0.92497   0.736255   2.92666 H        1 UNL1     0.0600
     71 H         1.803529   -0.401029   1.302027 H        1 UNL1     0.0348
     72 H         3.367205   1.466134   1.276217 H        1 UNL1     0.0602
     73 H         0.773951   5.411139   -0.46829 H        1 UNL1     0.0628
     74 H         1.568386   5.445163   2.502962 H        1 UNL1     0.1022
     75 H         10.92204   2.212621   -3.521494 H        1 UNL1     0.0279
     76 H         10.792785   3.424034   -4.733547 H        1 UNL1     0.0279
     77 H         11.907419   3.601466   -3.318836 H        1 UNL1     0.0279
     78 H         9.049946   4.767898   -5.086244 H        1 UNL1     0.1553
     79 H         7.768931   3.301097   -4.720562 H        1 UNL1     0.1484
     80 H         4.017167   2.709026   -4.835494 H        1 UNL1     0.0317
     81 H         4.753795   4.233052   -5.309467 H        1 UNL1     0.0317
     82 H         6.65607   3.034377   -6.422224 H        1 UNL1     0.0428
     83 H         5.095198   2.560981   -7.055689 H        1 UNL1     0.0428
     84 H         6.88219   -0.0724   -4.231666 H        1 UNL1     0.0428
     85 H         7.793857   1.334552   -4.654125 H        1 UNL1     0.0428
     86 H         6.513764   1.41707   -2.514171 H        1 UNL1     0.0317
     87 H         5.012799   1.19195   -3.287976 H        1 UNL1     0.0317
     88 H         7.223841   0.842453   -7.421958 H        1 UNL1     0.0429
     89 H         6.860876   -0.641321   -6.537139 H        1 UNL1     0.0429
     90 H         4.318191   0.228459   -7.342377 H        1 UNL1     0.0308
     91 H         6.290773   0.8935   -9.605439 H        1 UNL1     0.0233
     92 H         4.518902   0.798393   -9.769513 H        1 UNL1     0.0233
     93 H         5.248118   2.05336   -8.790786 H        1 UNL1     0.0233
     94 H         4.55067   -1.54319   -9.121692 H        1 UNL1     0.0233
     95 H         6.242616   -1.706088   -8.626604 H        1 UNL1     0.0233
     96 H         4.94006   -2.053783   -7.466239 H        1 UNL1     0.0233
     97 H         4.165839   10.51469   -0.15328 H        1 UNL1     0.0280
     98 H         5.776173   11.125224   -0.420223 H        1 UNL1     0.0280
     99 H         4.59335   11.126024   -1.76211 H        1 UNL1     0.0280
     100 H         6.700667   10.698342   -3.081908 H        1 UNL1     0.2922
     101 H         4.711736   0.896111   2.410077 H        1 UNL1     0.0236
     102 H         6.043603   2.116461   2.464274 H        1 UNL1     0.0236
     103 H         6.32066   0.500668   1.891604 H        1 UNL1     0.0236
     104 H         4.329553   -0.563718   1.25493 H        1 UNL1     0.2098
     105 H         0.700482   1.283727   -0.933895 H        1 UNL1     0.0234
     106 H         1.28532   -0.401934   -1.021129 H        1 UNL1     0.0234
     107 H         0.0   -0.0   0.0 H        1 UNL1     0.0234
     108 H         1.230737   3.263453   1.726732 H        1 UNL1     0.2098
     109 H         1.08314   3.06052   -0.865843 H        1 UNL1     0.0234
     110 H         -0.177078   2.327479   -1.908581 H        1 UNL1     0.0234
     111 H         0.066329   4.039076   -1.902895 H        1 UNL1     0.0234
     112 H         -3.590562   -1.490103   1.483046 H        1 UNL1     0.0342
     113 H         -3.22331   0.147927   2.13129 H        1 UNL1     0.0342
     114 H         -4.423547   -0.058224   0.852657 H        1 UNL1     0.0342
     115 H         -2.635284   1.984937   3.313183 H        1 UNL1     0.0234
     116 H         -1.129263   1.932073   4.235078 H        1 UNL1     0.0234
     117 H         -1.58723   3.322067   3.229181 H        1 UNL1     0.0234
     118 H         0.958873   7.682758   -0.8001 H        1 UNL1     0.0309
     119 H         2.222657   7.778846   -2.065674 H        1 UNL1     0.0309
     120 H         1.464063   6.26123   -1.637267 H        1 UNL1     0.0309
     121 H         -0.250943   6.275622   2.827385 H        1 UNL1     0.0524
     122 H         -1.989965   6.101154   2.558649 H        1 UNL1     0.0524
     123 H         -1.239741   5.350231   3.989391 H        1 UNL1     0.0524
@<TRIPOS>BOND
     1     1     2    1
     2     1    42    1
     3     2     3    2
     4     3     4    1
     5     4     5    2
     6     5     7    1
     7     6    75    1
     8     6    76    1
     9     6    77    1
    10     7     9   am
    11     9    10    1
    12    10    11    2
    13    10    43    1
    14    11    14    1
    15    11    15    1
    16    12    13   ar
    17    12    27   ar
    18    12    43    1
    19    13    14    1
    20    13    30   ar
    21    14    17    2
    22    15    16    1
    23    16    17    1
    24    16    18    1
    25    16    22    1
    26    18    19    1
    27    19    20    1
    28    20    21    1
    29    21    22    1
    30    23    24    1
    31    23    88    1
    32    23    89    1
    33    24    25    1
    34    24    26    1
    35    24    90    1
    36    25    91    1
    37    25    92    1
    38    25    93    1
    39    26    94    1
    40    26    95    1
    41    26    96    1
    42    27    28   ar
    43    28    29   ar
    44    29    30   ar
    45    29    31    1
    46    30    33    1
    47    31    32    1
    48    32    33    1
    49    32    35    1
    50    34    97    1
    51    34    98    1
    52    34    99    1
    53    35    61    1
    54    36    37    1
    55    36    60    1
    56    37    38    1
    57    38    39    1
    58    39    40    1
    59    40    41    1
    60    41    42    1
    61    45   100    1
    62    47   101    1
    63    47   102    1
    64    47   103    1
    65    48   104    1
    66    49   105    1
    67    49   106    1
    68    49   107    1
    69    50   108    1
    70    51    59    1
    71    52   109    1
    72    52   110    1
    73    52   111    1
    74    53    54    1
    75    54    55    2
    76    54    56    1
    77    56   112    1
    78    56   113    1
    79    56   114    1
    80    57   115    1
    81    57   116    1
    82    57   117    1
    83    58   118    1
    84    58   119    1
    85    58   120    1
    86    59   121    1
    87    59   122    1
    88    59   123    1
    89    60    61    2
    90     1    47    1
    91     1    62    1
    92     2    63    1
    93     3    64    1
    94     4    65    1
    95     5     6    1
    96     7     8    2
    97     9    78    1
    98    15    79    1
    99    18    80    1
   100    18    81    1
   101    19    82    1
   102    19    83    1
   103    20    23    1
   104    21    84    1
   105    21    85    1
   106    22    86    1
   107    22    87    1
   108    27    45    1
   109    28    34    1
   110    32    58    1
   111    33    46    2
   112    36    51    1
   113    36    66    1
   114    37    52    1
   115    37    67    1
   116    38    53    1
   117    38    68    1
   118    42    48    1
   119    42    72    1
   120    43    44    2
   121    60    73    1
   122    61    74    1
   123    39    69    1
   124    39    57    1
   125    40    70    1
   126    40    50    1
   127    41    71    1
   128    41    49    1
