@<TRIPOS>MOLECULE
*****
 123 128 0 0 0
SMALL
GASTEIGER

@<TRIPOS>ATOM
     1 C         5.167222   1.748572   0.491513 C.3        1 UNL1     0.0009
     2 C         6.603911   2.554806   -0.35875 C.2        1 UNL1     -0.0787
     3 C         7.885773   2.456714   -1.024524 C.2        1 UNL1     -0.0649
     4 C         8.763235   3.69196   -1.779895 C.2        1 UNL1     -0.0542
     5 C         9.783247   3.984758   -2.718469 C.2        1 UNL1     0.0115
     6 C         10.911411   3.35945   -3.58424 C.3        1 UNL1     -0.0348
     7 C         9.878609   5.468127   -3.324697 C.2        1 UNL1     0.2441
     8 O         10.702521   6.289682   -2.946886 O.2        1 UNL1     -0.2702
     9 N         9.128367   5.675333   -4.495318 N.am        1 UNL1     -0.2772
     10 C         7.845669   6.061987   -4.181462 C.2        1 UNL1     0.1049
     11 C         6.999865   5.090539   -3.889693 C.2        1 UNL1     0.0801
     12 C         6.547347   7.668404   -2.770392 C.ar        1 UNL1     0.0753
     13 C         5.788271   6.540423   -2.323099 C.ar        1 UNL1     0.0305
     14 C         5.905156   5.234841   -2.968734 C.2        1 UNL1     0.0924
     15 N         7.122449   3.761588   -4.049035 N.pl3        1 UNL1     -0.3170
     16 C         5.852582   3.162391   -3.734944 C.3        1 UNL1     0.1275
     17 N         5.216227   4.117456   -2.754829 N.2        1 UNL1     -0.2557
     18 C         4.999708   3.22172   -4.998585 C.3        1 UNL1     0.0016
     19 C         5.754547   2.537822   -6.127341 C.3        1 UNL1     0.0026
     20 N         6.024663   1.159641   -5.741748 N.3        1 UNL1     -0.3018
     21 C         6.788043   0.998995   -4.502469 C.3        1 UNL1     0.0026
     22 C         6.00934   1.689323   -3.381325 C.3        1 UNL1     0.0016
     23 C         6.469125   0.340301   -6.851603 C.3        1 UNL1     0.0012
     24 C         5.313652   0.091039   -7.833696 C.3        1 UNL1     -0.0339
     25 C         5.349359   1.083406   -9.007574 C.3        1 UNL1     -0.0615
     26 C         5.342707   -1.348369   -8.317475 C.3        1 UNL1     -0.0615
     27 C         6.34273   8.936001   -2.230534 C.ar        1 UNL1     0.1347
     28 C         5.3837   9.205394   -1.270461 C.ar        1 UNL1     0.0342
     29 C         4.682121   8.070875   -0.810225 C.ar        1 UNL1     0.1435
     30 C         4.90152   6.788937   -1.315911 C.ar        1 UNL1     0.0774
     31 O         3.641153   8.184309   0.043312 O.3        1 UNL1     -0.4436
     32 C         2.919441   6.951533   -0.099059 C.3        1 UNL1     0.3143
     33 C         3.9327   5.958501   -0.631418 C.2        1 UNL1     0.2504
     34 C         4.936907   10.571427   -0.829522 C.3        1 UNL1     -0.0327
     35 O         2.558828   6.5146   1.217109 O.2        1 UNL1     -0.4528
     36 C         -0.684277   4.582568   0.82011 C.3        1 UNL1     0.0854
     37 C         -0.98964   3.322155   -0.077462 C.3        1 UNL1     0.0236
     38 C         -1.590204   2.060983   0.710263 C.3        1 UNL1     0.1131
     39 C         -0.864422   1.529794   2.01155 C.3        1 UNL1     0.0200
     40 C         0.796768   1.3842   2.052643 C.3        1 UNL1     0.0661
     41 C         1.756083   0.615556   0.883664 C.3        1 UNL1     0.0091
     42 C         3.463662   0.978172   0.319674 C.3        1 UNL1     0.0661
     43 C         7.49735   7.460879   -3.891412 C.2        1 UNL1     0.2131
     44 O         7.897234   8.359075   -4.609795 O.2        1 UNL1     -0.2851
     45 O         7.15501   9.97117   -2.688864 O.3        1 UNL1     -0.5056
     46 O         3.948662   4.754943   -0.500855 O.2        1 UNL1     -0.2836
     47 C         5.563618   1.31883   1.929628 C.3        1 UNL1     -0.0566
     48 O         3.912192   -0.43296   0.401196 O.3        1 UNL1     -0.3909
     49 C         0.92185   0.383206   -0.356321 C.3        1 UNL1     -0.0577
     50 O         1.397011   2.601977   2.445643 O.3        1 UNL1     -0.3910
     51 O         -0.808326   4.392652   2.211504 O.3        1 UNL1     -0.3753
     52 C         0.054774   3.161858   -1.230048 C.3        1 UNL1     -0.0564
     53 O         -2.192864   1.022172   -0.189737 O.3        1 UNL1     -0.4608
     54 C         -2.427298   -0.284633   0.149722 C.2        1 UNL1     0.3042
     55 O         -1.858242   -1.283702   -0.288312 O.2        1 UNL1     -0.2512
     56 C         -3.467286   -0.450435   1.221006 C.3        1 UNL1     0.0332
     57 C         -1.58539   2.198589   3.272936 C.3        1 UNL1     -0.0567
     58 C         1.844216   7.196841   -1.183146 C.3        1 UNL1     0.0210
     59 C         -1.121466   5.571538   2.951799 C.3        1 UNL1     0.0372
     60 C         0.644728   5.211655   0.589557 C.2        1 UNL1     -0.0208
     61 C         1.557706   5.646713   1.459005 C.2        1 UNL1     0.0882
     62 H         4.691332   2.732743   0.578966 H        1 UNL1     0.0365
     63 H         6.337697   3.608595   -0.253256 H        1 UNL1     0.0576
     64 H         8.343392   1.48989   -1.245752 H        1 UNL1     0.0615
     65 H         8.27619   4.607311   -1.432903 H        1 UNL1     0.0622
     66 H         -1.428918   5.329169   0.510041 H        1 UNL1     0.0645
     67 H         -1.855202   3.631649   -0.688671 H        1 UNL1     0.0362
     68 H         -2.537249   2.497826   1.06211 H        1 UNL1     0.0741
     69 H         -1.195966   0.518673   2.206794 H        1 UNL1     0.0359
     70 H         0.908558   0.723717   2.933737 H        1 UNL1     0.0600
     71 H         1.799652   -0.405682   1.310432 H        1 UNL1     0.0348
     72 H         3.357832   1.466215   1.299434 H        1 UNL1     0.0602
     73 H         0.762589   5.409074   -0.446967 H        1 UNL1     0.0628
     74 H         1.540195   5.435871   2.528807 H        1 UNL1     0.1022
     75 H         10.953789   2.253732   -3.433818 H        1 UNL1     0.0279
     76 H         10.799215   3.445018   -4.662738 H        1 UNL1     0.0279
     77 H         11.916622   3.661622   -3.255691 H        1 UNL1     0.0279
     78 H         9.06632   4.805474   -5.020267 H        1 UNL1     0.1553
     79 H         7.787682   3.33368   -4.666524 H        1 UNL1     0.1484
     80 H         4.038419   2.730783   -4.804493 H        1 UNL1     0.0317
     81 H         4.773119   4.258525   -5.269407 H        1 UNL1     0.0317
     82 H         6.685216   3.069137   -6.375277 H        1 UNL1     0.0428
     83 H         5.12936   2.593131   -7.019043 H        1 UNL1     0.0428
     84 H         6.908345   -0.044012   -4.193476 H        1 UNL1     0.0428
     85 H         7.818143   1.367014   -4.606268 H        1 UNL1     0.0428
     86 H         6.525792   1.438795   -2.473305 H        1 UNL1     0.0317
     87 H         5.029886   1.211695   -3.256274 H        1 UNL1     0.0317
     88 H         7.265183   0.88216   -7.378836 H        1 UNL1     0.0429
     89 H         6.901707   -0.605542   -6.500849 H        1 UNL1     0.0429
     90 H         4.360645   0.210055   -7.304711 H        1 UNL1     0.0308
     91 H         6.302505   1.032688   -9.542402 H        1 UNL1     0.0233
     92 H         4.534433   0.88357   -9.707267 H        1 UNL1     0.0233
     93 H         5.223273   2.122466   -8.680019 H        1 UNL1     0.0233
     94 H         4.64818   -1.479679   -9.15427 H        1 UNL1     0.0233
     95 H         6.346192   -1.604242   -8.668914 H        1 UNL1     0.0233
     96 H         5.059788   -2.042711   -7.52135 H        1 UNL1     0.0233
     97 H         4.137304   10.521687   -0.096452 H        1 UNL1     0.0280
     98 H         5.747272   11.137887   -0.352355 H        1 UNL1     0.0280
     99 H         4.572018   11.139489   -1.700875 H        1 UNL1     0.0280
     100 H         6.688   10.72237   -3.010148 H        1 UNL1     0.2922
     101 H         4.700814   0.885134   2.434734 H        1 UNL1     0.0236
     102 H         6.014446   2.12407   2.508702 H        1 UNL1     0.0236
     103 H         6.319845   0.516139   1.928368 H        1 UNL1     0.0236
     104 H         4.331443   -0.559192   1.274847 H        1 UNL1     0.2098
     105 H         0.709204   1.282135   -0.929489 H        1 UNL1     0.0234
     106 H         1.291189   -0.404721   -1.012587 H        1 UNL1     0.0234
     107 H         0.0   -0.0   0.0 H        1 UNL1     0.0234
     108 H         1.203845   3.258683   1.749085 H        1 UNL1     0.2098
     109 H         1.081071   3.060686   -0.850325 H        1 UNL1     0.0234
     110 H         -0.171055   2.327257   -1.902497 H        1 UNL1     0.0234
     111 H         0.067173   4.039546   -1.889938 H        1 UNL1     0.0234
     112 H         -3.590697   -1.511348   1.45887 H        1 UNL1     0.0342
     113 H         -3.23032   0.125292   2.114443 H        1 UNL1     0.0342
     114 H         -4.424708   -0.079352   0.830103 H        1 UNL1     0.0342
     115 H         -2.655019   1.950335   3.311048 H        1 UNL1     0.0234
     116 H         -1.148898   1.918666   4.233752 H        1 UNL1     0.0234
     117 H         -1.623961   3.300453   3.224482 H        1 UNL1     0.0234
     118 H         0.942549   7.682296   -0.770427 H        1 UNL1     0.0309
     119 H         2.213136   7.786246   -2.028547 H        1 UNL1     0.0309
     120 H         1.456708   6.264995   -1.6093 H        1 UNL1     0.0309
     121 H         -0.300404   6.274705   2.814786 H        1 UNL1     0.0524
     122 H         -2.041265   6.060661   2.590182 H        1 UNL1     0.0524
     123 H         -1.239397   5.333636   4.005169 H        1 UNL1     0.0524
@<TRIPOS>BOND
     1     1     2    1
     2     1    42    1
     3     2     3    2
     4     3     4    1
     5     4     5    2
     6     5     7    1
     7     6    75    1
     8     6    76    1
     9     6    77    1
    10     7     9   am
    11     9    10    1
    12    10    11    2
    13    10    43    1
    14    11    14    1
    15    11    15    1
    16    12    13   ar
    17    12    27   ar
    18    12    43    1
    19    13    14    1
    20    13    30   ar
    21    14    17    2
    22    15    16    1
    23    16    17    1
    24    16    18    1
    25    16    22    1
    26    18    19    1
    27    19    20    1
    28    20    21    1
    29    21    22    1
    30    23    24    1
    31    23    88    1
    32    23    89    1
    33    24    25    1
    34    24    26    1
    35    24    90    1
    36    25    91    1
    37    25    92    1
    38    25    93    1
    39    26    94    1
    40    26    95    1
    41    26    96    1
    42    27    28   ar
    43    28    29   ar
    44    29    30   ar
    45    29    31    1
    46    30    33    1
    47    31    32    1
    48    32    33    1
    49    32    35    1
    50    34    97    1
    51    34    98    1
    52    34    99    1
    53    35    61    1
    54    36    37    1
    55    36    60    1
    56    37    38    1
    57    38    39    1
    58    39    40    1
    59    40    41    1
    60    41    42    1
    61    45   100    1
    62    47   101    1
    63    47   102    1
    64    47   103    1
    65    48   104    1
    66    49   105    1
    67    49   106    1
    68    49   107    1
    69    50   108    1
    70    51    59    1
    71    52   109    1
    72    52   110    1
    73    52   111    1
    74    53    54    1
    75    54    55    2
    76    54    56    1
    77    56   112    1
    78    56   113    1
    79    56   114    1
    80    57   115    1
    81    57   116    1
    82    57   117    1
    83    58   118    1
    84    58   119    1
    85    58   120    1
    86    59   121    1
    87    59   122    1
    88    59   123    1
    89    60    61    2
    90     1    47    1
    91     1    62    1
    92     2    63    1
    93     3    64    1
    94     4    65    1
    95     5     6    1
    96     7     8    2
    97     9    78    1
    98    15    79    1
    99    18    80    1
   100    18    81    1
   101    19    82    1
   102    19    83    1
   103    20    23    1
   104    21    84    1
   105    21    85    1
   106    22    86    1
   107    22    87    1
   108    27    45    1
   109    28    34    1
   110    32    58    1
   111    33    46    2
   112    36    51    1
   113    36    66    1
   114    37    52    1
   115    37    67    1
   116    38    53    1
   117    38    68    1
   118    42    48    1
   119    42    72    1
   120    43    44    2
   121    60    73    1
   122    61    74    1
   123    39    69    1
   124    39    57    1
   125    40    70    1
   126    40    50    1
   127    41    71    1
   128    41    49    1
