@<TRIPOS>MOLECULE
*****
 123 128 0 0 0
SMALL
GASTEIGER

@<TRIPOS>ATOM
     1 C         5.165017   1.752775   0.499644 C.3        1 UNL1     0.0009
     2 C         6.602168   2.560768   -0.348166 C.2        1 UNL1     -0.0787
     3 C         7.885027   2.46419   -1.012239 C.2        1 UNL1     -0.0649
     4 C         8.762447   3.70065   -1.765669 C.2        1 UNL1     -0.0542
     5 C         9.78349   3.994897   -2.702668 C.2        1 UNL1     0.0115
     6 C         10.913385   3.371089   -3.567263 C.3        1 UNL1     -0.0348
     7 C         9.878391   5.47871   -3.307879 C.2        1 UNL1     0.2441
     8 O         10.701068   6.300757   -2.928448 O.2        1 UNL1     -0.2702
     9 N         9.129575   5.685963   -4.479405 N.am        1 UNL1     -0.2772
     10 C         7.84611   6.071312   -4.167078 C.2        1 UNL1     0.1049
     11 C         7.000755   5.098955   -3.877049 C.2        1 UNL1     0.0801
     12 C         6.544455   7.675755   -2.756833 C.ar        1 UNL1     0.0753
     13 C         5.78575   6.546846   -2.311255 C.ar        1 UNL1     0.0305
     14 C         5.904658   5.241752   -2.957507 C.2        1 UNL1     0.0924
     15 N         7.124715   3.770206   -4.037016 N.pl3        1 UNL1     -0.3170
     16 C         5.854941   3.169716   -3.725025 C.3        1 UNL1     0.1275
     17 N         5.21641   4.123641   -2.745214 N.2        1 UNL1     -0.2557
     18 C         5.003749   3.229058   -4.989799 C.3        1 UNL1     0.0016
     19 C         5.760731   2.546492   -6.117926 C.3        1 UNL1     0.0026
     20 N         6.031519   1.168316   -5.732784 N.3        1 UNL1     -0.3018
     21 C         6.793339   1.007594   -4.492555 C.3        1 UNL1     0.0026
     22 C         6.012497   1.696574   -3.37207 C.3        1 UNL1     0.0016
     23 C         6.478216   0.350027   -6.842517 C.3        1 UNL1     0.0012
     24 C         5.324309   0.100346   -7.826343 C.3        1 UNL1     -0.0339
     25 C         5.350586   1.10446   -8.99044 C.3        1 UNL1     -0.0615
     26 C         5.365588   -1.333936   -8.32425 C.3        1 UNL1     -0.0615
     27 C         6.337994   8.942851   -2.216501 C.ar        1 UNL1     0.1347
     28 C         5.377414   9.210835   -1.257584 C.ar        1 UNL1     0.0342
     29 C         4.676193   8.075431   -0.798987 C.ar        1 UNL1     0.1435
     30 C         4.897403   6.793986   -1.305136 C.ar        1 UNL1     0.0774
     31 O         3.633957   8.187448   0.053188 O.3        1 UNL1     -0.4436
     32 C         2.913515   6.95413   -0.090908 C.3        1 UNL1     0.3143
     33 C         3.928369   5.962299   -0.622468 C.2        1 UNL1     0.2504
     34 C         4.928826   10.576215   -0.816443 C.3        1 UNL1     -0.0327
     35 O         2.551479   6.516097   1.224504 O.2        1 UNL1     -0.4528
     36 C         -0.689394   4.581479   0.821904 C.3        1 UNL1     0.0854
     37 C         -0.992427   3.321338   -0.076838 C.3        1 UNL1     0.0236
     38 C         -1.592972   2.059173   0.70931 C.3        1 UNL1     0.1131
     39 C         -0.868513   1.527839   2.011275 C.3        1 UNL1     0.0200
     40 C         0.792746   1.383666   2.05456 C.3        1 UNL1     0.0661
     41 C         1.754332   0.616557   0.886439 C.3        1 UNL1     0.0091
     42 C         3.462367   0.980995   0.325009 C.3        1 UNL1     0.0661
     43 C         7.496176   7.469727   -3.876673 C.2        1 UNL1     0.2131
     44 O         7.896262   8.3687   -4.59397 O.2        1 UNL1     -0.2851
     45 O         7.149999   9.979   -2.673098 O.3        1 UNL1     -0.5056
     46 O         3.9452   4.758677   -0.492602 O.2        1 UNL1     -0.2836
     47 C         5.559815   1.322519   1.938045 C.3        1 UNL1     -0.0566
     48 O         3.912014   -0.429793   0.406305 O.3        1 UNL1     -0.3909
     49 C         0.922004   0.384222   -0.354828 C.3        1 UNL1     -0.0577
     50 O         1.391388   2.601731   2.449109 O.3        1 UNL1     -0.3910
     51 O         -0.815185   4.390625   2.213012 O.3        1 UNL1     -0.3753
     52 C         0.053705   3.162639   -1.228086 C.3        1 UNL1     -0.0564
     53 O         -2.193492   1.020376   -0.192135 O.3        1 UNL1     -0.4608
     54 C         -2.41475   -0.290162   0.141727 C.2        1 UNL1     0.3042
     55 O         -1.840648   -1.282082   -0.305868 O.2        1 UNL1     -0.2512
     56 C         -3.445659   -0.470419   1.219432 C.3        1 UNL1     0.0332
     57 C         -1.591792   2.195251   3.272069 C.3        1 UNL1     -0.0567
     58 C         1.839565   7.199149   -1.176323 C.3        1 UNL1     0.0210
     59 C         -1.161278   5.562405   2.949908 C.3        1 UNL1     0.0372
     60 C         0.639377   5.211861   0.593549 C.2        1 UNL1     -0.0208
     61 C         1.550782   5.647194   1.464509 C.2        1 UNL1     0.0882
     62 H         4.688151   2.736479   0.587032 H        1 UNL1     0.0365
     63 H         6.334892   3.614262   -0.242408 H        1 UNL1     0.0576
     64 H         8.343791   1.497897   -1.233416 H        1 UNL1     0.0615
     65 H         8.27413   4.61537   -1.4188 H        1 UNL1     0.0622
     66 H         -1.434259   5.327618   0.511259 H        1 UNL1     0.0645
     67 H         -1.857419   3.630443   -0.689049 H        1 UNL1     0.0362
     68 H         -2.540879   2.494981   1.060117 H        1 UNL1     0.0741
     69 H         -1.199443   0.516313   2.20546 H        1 UNL1     0.0359
     70 H         0.903902   0.722755   2.935412 H        1 UNL1     0.0600
     71 H         1.798206   -0.404898   1.312658 H        1 UNL1     0.0348
     72 H         3.354768   1.468361   1.304913 H        1 UNL1     0.0602
     73 H         0.758488   5.410002   -0.442695 H        1 UNL1     0.0628
     74 H         1.531989   5.435697   2.53416 H        1 UNL1     0.1022
     75 H         10.958593   2.265731   -3.41503 H        1 UNL1     0.0279
     76 H         10.80112   3.454607   -4.645915 H        1 UNL1     0.0279
     77 H         11.917767   3.676389   -3.239071 H        1 UNL1     0.0279
     78 H         9.069006   4.816364   -5.004957 H        1 UNL1     0.1553
     79 H         7.791167   3.343247   -4.653847 H        1 UNL1     0.1484
     80 H         4.042623   2.737168   -4.797318 H        1 UNL1     0.0317
     81 H         4.776628   4.265827   -5.260313 H        1 UNL1     0.0317
     82 H         6.691275   3.078765   -6.364268 H        1 UNL1     0.0428
     83 H         5.13672   2.60179   -7.010452 H        1 UNL1     0.0428
     84 H         6.914125   -0.035492   -4.18402 H        1 UNL1     0.0428
     85 H         7.823258   1.376572   -4.594722 H        1 UNL1     0.0428
     86 H         6.527922   1.445953   -2.463492 H        1 UNL1     0.0317
     87 H         5.033289   1.218019   -3.248647 H        1 UNL1     0.0317
     88 H         7.274524   0.892894   -7.368335 H        1 UNL1     0.0429
     89 H         6.91114   -0.595648   -6.491734 H        1 UNL1     0.0429
     90 H         4.370651   0.205848   -7.295665 H        1 UNL1     0.0308
     91 H         6.301446   1.062943   -9.53011 H        1 UNL1     0.0233
     92 H         4.533246   0.908261   -9.688344 H        1 UNL1     0.0233
     93 H         5.221827   2.139693   -8.651988 H        1 UNL1     0.0233
     94 H         4.670531   -1.463465   -9.160881 H        1 UNL1     0.0233
     95 H         6.37064   -1.577095   -8.68021 H        1 UNL1     0.0233
     96 H         5.090759   -2.038605   -7.53439 H        1 UNL1     0.0233
     97 H         4.134546   10.525207   -0.077696 H        1 UNL1     0.0280
     98 H         5.740473   11.146586   -0.346163 H        1 UNL1     0.0280
     99 H         4.555829   11.141093   -1.686432 H        1 UNL1     0.0280
     100 H         6.682766   10.729462   -2.995778 H        1 UNL1     0.2922
     101 H         4.696697   0.887771   2.441709 H        1 UNL1     0.0236
     102 H         6.009146   2.127805   2.518217 H        1 UNL1     0.0236
     103 H         6.316742   0.520488   1.937344 H        1 UNL1     0.0236
     104 H         4.330492   -0.55609   1.280316 H        1 UNL1     0.2098
     105 H         0.70936   1.283307   -0.92775 H        1 UNL1     0.0234
     106 H         1.292929   -0.402992   -1.011056 H        1 UNL1     0.0234
     107 H         0.0   -0.0   0.0 H        1 UNL1     0.0234
     108 H         1.193204   3.260339   1.755764 H        1 UNL1     0.2098
     109 H         1.07813   3.049741   -0.846615 H        1 UNL1     0.0234
     110 H         -0.177135   2.335856   -1.908444 H        1 UNL1     0.0234
     111 H         0.075019   4.045963   -1.880183 H        1 UNL1     0.0234
     112 H         -3.567816   -1.534506   1.443358 H        1 UNL1     0.0342
     113 H         -3.200636   0.092499   2.118838 H        1 UNL1     0.0342
     114 H         -4.406115   -0.093267   0.842013 H        1 UNL1     0.0342
     115 H         -2.661255   1.946044   3.308565 H        1 UNL1     0.0234
     116 H         -1.156375   1.915135   4.233316 H        1 UNL1     0.0234
     117 H         -1.631257   3.297111   3.224219 H        1 UNL1     0.0234
     118 H         0.937533   7.684983   -0.764849 H        1 UNL1     0.0309
     119 H         2.20956   7.788082   -2.021582 H        1 UNL1     0.0309
     120 H         1.452347   6.267183   -1.602477 H        1 UNL1     0.0309
     121 H         -0.357479   6.285743   2.815577 H        1 UNL1     0.0524
     122 H         -2.091346   6.027744   2.583204 H        1 UNL1     0.0524
     123 H         -1.278161   5.323219   4.003104 H        1 UNL1     0.0524
@<TRIPOS>BOND
     1     1     2    1
     2     1    42    1
     3     2     3    2
     4     3     4    1
     5     4     5    2
     6     5     7    1
     7     6    75    1
     8     6    76    1
     9     6    77    1
    10     7     9   am
    11     9    10    1
    12    10    11    2
    13    10    43    1
    14    11    14    1
    15    11    15    1
    16    12    13   ar
    17    12    27   ar
    18    12    43    1
    19    13    14    1
    20    13    30   ar
    21    14    17    2
    22    15    16    1
    23    16    17    1
    24    16    18    1
    25    16    22    1
    26    18    19    1
    27    19    20    1
    28    20    21    1
    29    21    22    1
    30    23    24    1
    31    23    88    1
    32    23    89    1
    33    24    25    1
    34    24    26    1
    35    24    90    1
    36    25    91    1
    37    25    92    1
    38    25    93    1
    39    26    94    1
    40    26    95    1
    41    26    96    1
    42    27    28   ar
    43    28    29   ar
    44    29    30   ar
    45    29    31    1
    46    30    33    1
    47    31    32    1
    48    32    33    1
    49    32    35    1
    50    34    97    1
    51    34    98    1
    52    34    99    1
    53    35    61    1
    54    36    37    1
    55    36    60    1
    56    37    38    1
    57    38    39    1
    58    39    40    1
    59    40    41    1
    60    41    42    1
    61    45   100    1
    62    47   101    1
    63    47   102    1
    64    47   103    1
    65    48   104    1
    66    49   105    1
    67    49   106    1
    68    49   107    1
    69    50   108    1
    70    51    59    1
    71    52   109    1
    72    52   110    1
    73    52   111    1
    74    53    54    1
    75    54    55    2
    76    54    56    1
    77    56   112    1
    78    56   113    1
    79    56   114    1
    80    57   115    1
    81    57   116    1
    82    57   117    1
    83    58   118    1
    84    58   119    1
    85    58   120    1
    86    59   121    1
    87    59   122    1
    88    59   123    1
    89    60    61    2
    90     1    47    1
    91     1    62    1
    92     2    63    1
    93     3    64    1
    94     4    65    1
    95     5     6    1
    96     7     8    2
    97     9    78    1
    98    15    79    1
    99    18    80    1
   100    18    81    1
   101    19    82    1
   102    19    83    1
   103    20    23    1
   104    21    84    1
   105    21    85    1
   106    22    86    1
   107    22    87    1
   108    27    45    1
   109    28    34    1
   110    32    58    1
   111    33    46    2
   112    36    51    1
   113    36    66    1
   114    37    52    1
   115    37    67    1
   116    38    53    1
   117    38    68    1
   118    42    48    1
   119    42    72    1
   120    43    44    2
   121    60    73    1
   122    61    74    1
   123    39    69    1
   124    39    57    1
   125    40    70    1
   126    40    50    1
   127    41    71    1
   128    41    49    1
