@<TRIPOS>MOLECULE
*****
 123 128 0 0 0
SMALL
GASTEIGER

@<TRIPOS>ATOM
     1 C         5.170994   1.741403   0.477082 C.3        1 UNL1     0.0009
     2 C         6.607193   2.543538   -0.377873 C.2        1 UNL1     -0.0787
     3 C         7.887515   2.44199   -1.046087 C.2        1 UNL1     -0.0649
     4 C         8.765365   3.674226   -1.80591 C.2        1 UNL1     -0.0542
     5 C         9.783893   3.9634   -2.747217 C.2        1 UNL1     0.0115
     6 C         10.909268   3.334455   -3.613983 C.3        1 UNL1     -0.0348
     7 C         9.880349   5.445319   -3.356808 C.2        1 UNL1     0.2441
     8 O         10.706343   6.266368   -2.982458 O.2        1 UNL1     -0.2702
     9 N         9.128011   5.65122   -4.526313 N.am        1 UNL1     -0.2772
     10 C         7.84658   6.04058   -4.21063 C.2        1 UNL1     0.1049
     11 C         6.999845   5.071102   -3.915037 C.2        1 UNL1     0.0801
     12 C         6.553733   7.652064   -2.800311 C.ar        1 UNL1     0.0753
     13 C         5.7938   6.526247   -2.34904 C.ar        1 UNL1     0.0305
     14 C         5.907277   5.219107   -2.992125 C.2        1 UNL1     0.0924
     15 N         7.119992   3.741621   -4.071793 N.pl3        1 UNL1     -0.3170
     16 C         5.849831   3.145113   -3.753796 C.3        1 UNL1     0.1275
     17 N         5.217023   4.103277   -2.774408 N.2        1 UNL1     -0.2557
     18 C         4.994434   3.203103   -5.015792 C.3        1 UNL1     0.0016
     19 C         5.745847   2.5156   -6.144645 C.3        1 UNL1     0.0026
     20 N         6.014578   1.137817   -5.756668 N.3        1 UNL1     -0.3018
     21 C         6.78027   0.978602   -4.518631 C.3        1 UNL1     0.0026
     22 C         6.004987   1.672556   -3.397356 C.3        1 UNL1     0.0016
     23 C         6.455439   0.315407   -6.865688 C.3        1 UNL1     0.0012
     24 C         5.297539   0.065887   -7.844853 C.3        1 UNL1     -0.0339
     25 C         5.39158   0.985945   -9.073147 C.3        1 UNL1     -0.0615
     26 C         5.260405   -1.398774   -8.245066 C.3        1 UNL1     -0.0615
     27 C         6.352245   8.921134   -2.26274 C.ar        1 UNL1     0.1347
     28 C         5.395635   9.194097   -1.301262 C.ar        1 UNL1     0.0342
     29 C         4.693215   8.061678   -0.837152 C.ar        1 UNL1     0.1435
     30 C         4.909534   6.778317   -1.340551 C.ar        1 UNL1     0.0774
     31 O         3.654199   8.178586   0.018293 O.3        1 UNL1     -0.4436
     32 C         2.930241   6.946658   -0.11995 C.3        1 UNL1     0.3143
     33 C         3.940819   5.950884   -0.652283 C.2        1 UNL1     0.2504
     34 C         4.951922   10.561776   -0.862318 C.3        1 UNL1     -0.0327
     35 O         2.571665   6.513107   1.197892 O.2        1 UNL1     -0.4528
     36 C         -0.675313   4.585388   0.811734 C.3        1 UNL1     0.0854
     37 C         -0.984533   3.32355   -0.08251 C.3        1 UNL1     0.0236
     38 C         -1.585461   2.065017   0.709149 C.3        1 UNL1     0.1131
     39 C         -0.857825   1.535453   2.010063 C.3        1 UNL1     0.0200
     40 C         0.803214   1.387307   2.048028 C.3        1 UNL1     0.0661
     41 C         1.758884   0.614648   0.878711 C.3        1 UNL1     0.0091
     42 C         3.465863   0.973346   0.310415 C.3        1 UNL1     0.0661
     43 C         7.50108   7.440639   -3.922849 C.2        1 UNL1     0.2131
     44 O         7.900897   8.336665   -4.643975 O.2        1 UNL1     -0.2851
     45 O         7.165211   9.95403   -2.72496 O.3        1 UNL1     -0.5056
     46 O         3.955145   4.747583   -0.519183 O.2        1 UNL1     -0.2836
     47 C         5.569689   1.3141   1.915287 C.3        1 UNL1     -0.0566
     48 O         3.912324   -0.438319   0.394023 O.3        1 UNL1     -0.3909
     49 C         0.921716   0.38098   -0.359046 C.3        1 UNL1     -0.0577
     50 O         1.406199   2.604965   2.437183 O.3        1 UNL1     -0.3910
     51 O         -0.796778   4.398638   2.203783 O.3        1 UNL1     -0.3753
     52 C         0.057234   3.159136   -1.23691 C.3        1 UNL1     -0.0564
     53 O         -2.191631   1.025248   -0.187381 O.3        1 UNL1     -0.4608
     54 C         -2.396262   -0.288667   0.143803 C.2        1 UNL1     0.3042
     55 O         -1.815852   -1.272995   -0.312335 O.2        1 UNL1     -0.2512
     56 C         -3.415647   -0.483377   1.229923 C.3        1 UNL1     0.0332
     57 C         -1.575116   2.208081   3.271506 C.3        1 UNL1     -0.0567
     58 C         1.853161   7.191361   -1.202332 C.3        1 UNL1     0.0210
     59 C         -1.106514   5.579597   2.942205 C.3        1 UNL1     0.0372
     60 C         0.654206   5.211869   0.577087 C.2        1 UNL1     -0.0208
     61 C         1.569673   5.64733   1.443713 C.2        1 UNL1     0.0882
     62 H         4.696847   2.726513   0.563417 H        1 UNL1     0.0365
     63 H         6.342869   3.597972   -0.27408 H        1 UNL1     0.0576
     64 H         8.343142   1.473969   -1.266197 H        1 UNL1     0.0615
     65 H         8.280493   4.591088   -1.459867 H        1 UNL1     0.0622
     66 H         -1.419411   5.332509   0.501613 H        1 UNL1     0.0645
     67 H         -1.850868   3.633115   -0.692586 H        1 UNL1     0.0362
     68 H         -2.531081   2.504115   1.06202 H        1 UNL1     0.0741
     69 H         -1.190566   0.525278   2.208151 H        1 UNL1     0.0359
     70 H         0.915783   0.728528   2.930298 H        1 UNL1     0.0600
     71 H         1.80172   -0.405745   1.307568 H        1 UNL1     0.0348
     72 H         3.362838   1.463646   1.289346 H        1 UNL1     0.0602
     73 H         0.770231   5.40689   -0.460098 H        1 UNL1     0.0628
     74 H         1.554046   5.438798   2.513997 H        1 UNL1     0.1022
     75 H         10.900944   2.221742   -3.519984 H        1 UNL1     0.0279
     76 H         10.831776   3.479303   -4.689196 H        1 UNL1     0.0279
     77 H         11.916405   3.575779   -3.243661 H        1 UNL1     0.0279
     78 H         9.063497   4.780343   -5.049274 H        1 UNL1     0.1553
     79 H         7.783265   3.311341   -4.689742 H        1 UNL1     0.1484
     80 H         4.032773   2.714108   -4.818663 H        1 UNL1     0.0317
     81 H         4.768927   4.239686   -5.288359 H        1 UNL1     0.0317
     82 H         6.67684   3.044906   -6.395641 H        1 UNL1     0.0428
     83 H         5.118901   2.570001   -7.035167 H        1 UNL1     0.0428
     84 H         6.899558   -0.063933   -4.207661 H        1 UNL1     0.0428
     85 H         7.810733   1.344761   -4.625348 H        1 UNL1     0.0428
     86 H         6.522923   1.423145   -2.489874 H        1 UNL1     0.0317
     87 H         5.025038   1.196753   -3.269258 H        1 UNL1     0.0317
     88 H         7.25126   0.854875   -7.395724 H        1 UNL1     0.0429
     89 H         6.887247   -0.630372   -6.513811 H        1 UNL1     0.0429
     90 H         4.347029   0.261078   -7.33432 H        1 UNL1     0.0308
     91 H         6.345612   0.858515   -9.593423 H        1 UNL1     0.0233
     92 H         4.573829   0.785588   -9.769386 H        1 UNL1     0.0233
     93 H         5.313586   2.047054   -8.807063 H        1 UNL1     0.0233
     94 H         4.60344   -1.537294   -9.11054 H        1 UNL1     0.0233
     95 H         6.262573   -1.735056   -8.525308 H        1 UNL1     0.0233
     96 H         4.892984   -2.026422   -7.428347 H        1 UNL1     0.0233
     97 H         4.121106   10.516166   -0.164539 H        1 UNL1     0.0280
     98 H         5.749987   11.109231   -0.344011 H        1 UNL1     0.0280
     99 H         4.633472   11.146144   -1.741066 H        1 UNL1     0.0280
     100 H         6.699588   10.71758   -3.01789 H        1 UNL1     0.2922
     101 H         4.684449   0.987302   2.460456 H        1 UNL1     0.0236
     102 H         6.120662   2.084258   2.454054 H        1 UNL1     0.0236
     103 H         6.238569   0.437293   1.916374 H        1 UNL1     0.0236
     104 H         4.24542   -0.589145   1.300262 H        1 UNL1     0.2098
     105 H         0.709306   1.279021   -0.933691 H        1 UNL1     0.0234
     106 H         1.288445   -0.408931   -1.014391 H        1 UNL1     0.0234
     107 H         0.0   -0.0   0.0 H        1 UNL1     0.0234
     108 H         1.261144   3.244746   1.713715 H        1 UNL1     0.2098
     109 H         1.084154   3.057143   -0.859097 H        1 UNL1     0.0234
     110 H         -0.171311   2.323463   -1.907106 H        1 UNL1     0.0234
     111 H         0.069656   4.035394   -1.898698 H        1 UNL1     0.0234
     112 H         -3.515489   -1.548476   1.460011 H        1 UNL1     0.0342
     113 H         -3.175097   0.088763   2.124705 H        1 UNL1     0.0342
     114 H         -4.385953   -0.126843   0.857696 H        1 UNL1     0.0342
     115 H         -2.662971   2.055143   3.2523 H        1 UNL1     0.0234
     116 H         -1.209694   1.846796   4.234828 H        1 UNL1     0.0234
     117 H         -1.51489   3.310031   3.275952 H        1 UNL1     0.0234
     118 H         0.951877   7.67631   -0.788183 H        1 UNL1     0.0309
     119 H         2.220409   7.780974   -2.048315 H        1 UNL1     0.0309
     120 H         1.465502   6.259297   -1.627871 H        1 UNL1     0.0309
     121 H         -0.732097   5.442085   3.956236 H        1 UNL1     0.0524
     122 H         -0.615179   6.474537   2.525422 H        1 UNL1     0.0524
     123 H         -2.18049   5.742137   2.958011 H        1 UNL1     0.0524
@<TRIPOS>BOND
     1     1     2    1
     2     1    42    1
     3     2     3    2
     4     3     4    1
     5     4     5    2
     6     5     7    1
     7     6    75    1
     8     6    76    1
     9     6    77    1
    10     7     9   am
    11     9    10    1
    12    10    11    2
    13    10    43    1
    14    11    14    1
    15    11    15    1
    16    12    13   ar
    17    12    27   ar
    18    12    43    1
    19    13    14    1
    20    13    30   ar
    21    14    17    2
    22    15    16    1
    23    16    17    1
    24    16    18    1
    25    16    22    1
    26    18    19    1
    27    19    20    1
    28    20    21    1
    29    21    22    1
    30    23    24    1
    31    23    88    1
    32    23    89    1
    33    24    25    1
    34    24    26    1
    35    24    90    1
    36    25    91    1
    37    25    92    1
    38    25    93    1
    39    26    94    1
    40    26    95    1
    41    26    96    1
    42    27    28   ar
    43    28    29   ar
    44    29    30   ar
    45    29    31    1
    46    30    33    1
    47    31    32    1
    48    32    33    1
    49    32    35    1
    50    34    97    1
    51    34    98    1
    52    34    99    1
    53    35    61    1
    54    36    37    1
    55    36    60    1
    56    37    38    1
    57    38    39    1
    58    39    40    1
    59    40    41    1
    60    41    42    1
    61    45   100    1
    62    47   101    1
    63    47   102    1
    64    47   103    1
    65    48   104    1
    66    49   105    1
    67    49   106    1
    68    49   107    1
    69    50   108    1
    70    51    59    1
    71    52   109    1
    72    52   110    1
    73    52   111    1
    74    53    54    1
    75    54    55    2
    76    54    56    1
    77    56   112    1
    78    56   113    1
    79    56   114    1
    80    57   115    1
    81    57   116    1
    82    57   117    1
    83    58   118    1
    84    58   119    1
    85    58   120    1
    86    59   121    1
    87    59   122    1
    88    59   123    1
    89    60    61    2
    90     1    47    1
    91     1    62    1
    92     2    63    1
    93     3    64    1
    94     4    65    1
    95     5     6    1
    96     7     8    2
    97     9    78    1
    98    15    79    1
    99    18    80    1
   100    18    81    1
   101    19    82    1
   102    19    83    1
   103    20    23    1
   104    21    84    1
   105    21    85    1
   106    22    86    1
   107    22    87    1
   108    27    45    1
   109    28    34    1
   110    32    58    1
   111    33    46    2
   112    36    51    1
   113    36    66    1
   114    37    52    1
   115    37    67    1
   116    38    53    1
   117    38    68    1
   118    42    48    1
   119    42    72    1
   120    43    44    2
   121    60    73    1
   122    61    74    1
   123    39    69    1
   124    39    57    1
   125    40    70    1
   126    40    50    1
   127    41    71    1
   128    41    49    1
