@<TRIPOS>MOLECULE
*****
 123 128 0 0 0
SMALL
GASTEIGER

@<TRIPOS>ATOM
     1 C         -1.154556   -4.143367   -0.129426 C.3        1 UNL1     0.0009
     2 C         -1.360115   -5.406478   1.211966 C.2        1 UNL1     -0.0787
     3 C         -0.795165   -6.40898   2.090526 C.2        1 UNL1     -0.0649
     4 C         -1.566494   -7.250975   3.340508 C.2        1 UNL1     -0.0542
     5 C         -1.37361   -8.002242   4.526034 C.2        1 UNL1     0.0115
     6 C         -0.305913   -8.706725   5.407538 C.3        1 UNL1     -0.0348
     7 C         -2.608744   -8.195099   5.533129 C.2        1 UNL1     0.2441
     8 O         -3.260224   -9.228555   5.596902 O.2        1 UNL1     -0.2702
     9 N         -2.727837   -7.197963   6.51684 N.am        1 UNL1     -0.2772
     10 C         -3.485063   -6.149033   6.048144 C.2        1 UNL1     0.1049
     11 C         -2.849303   -5.255306   5.312423 C.2        1 UNL1     0.0801
     12 C         -5.642112   -5.618038   4.898135 C.ar        1 UNL1     0.0753
     13 C         -4.87237   -4.820833   3.992283 C.ar        1 UNL1     0.0305
     14 C         -3.468359   -4.509238   4.250573 C.2        1 UNL1     0.0924
     15 N         -1.531741   -5.081283   5.111736 N.pl3        1 UNL1     -0.3170
     16 C         -1.357959   -3.862933   4.366298 C.3        1 UNL1     0.1275
     17 N         -2.638225   -3.714544   3.581045 N.2        1 UNL1     -0.2557
     18 C         -1.342657   -2.715774   5.372029 C.3        1 UNL1     0.0016
     19 C         -0.254234   -2.983988   6.399154 C.3        1 UNL1     0.0026
     20 N         1.023617   -3.092835   5.709027 N.3        1 UNL1     -0.3018
     21 C         1.086679   -4.130195   4.677389 C.3        1 UNL1     0.0026
     22 C         -0.012073   -3.838549   3.653876 C.3        1 UNL1     0.0016
     23 C         2.157226   -3.049047   6.611056 C.3        1 UNL1     0.0012
     24 C         2.441853   -4.445301   7.186572 C.3        1 UNL1     -0.0339
     25 C         3.942281   -4.777803   7.139517 C.3        1 UNL1     -0.0615
     26 C         1.890251   -4.549237   8.597852 C.3        1 UNL1     -0.0615
     27 C         -7.008526   -5.810305   4.708225 C.ar        1 UNL1     0.1347
     28 C         -7.720046   -5.226059   3.675536 C.ar        1 UNL1     0.0342
     29 C         -6.932623   -4.485442   2.768555 C.ar        1 UNL1     0.1435
     30 C         -5.556718   -4.314051   2.925815 C.ar        1 UNL1     0.0774
     31 O         -7.493887   -3.765384   1.772811 O.3        1 UNL1     -0.4436
     32 C         -6.482893   -2.818548   1.395627 C.3        1 UNL1     0.3143
     33 C         -5.173327   -3.440661   1.836335 C.2        1 UNL1     0.2504
     34 C         -9.217625   -5.180569   3.551892 C.3        1 UNL1     -0.0327
     35 O         -6.459696   -2.767854   -0.036206 O.2        1 UNL1     -0.4528
     36 C         -5.366827   0.754287   -0.935232 C.3        1 UNL1     0.0854
     37 C         -4.054537   1.526022   -0.523112 C.3        1 UNL1     0.0236
     38 C         -3.196518   2.102886   -1.74899 C.3        1 UNL1     0.1131
     39 C         -2.80818   1.15178   -2.951846 C.3        1 UNL1     0.0200
     40 C         -2.26289   -0.397707   -2.661696 C.3        1 UNL1     0.0661
     41 C         -1.034225   -0.831629   -1.575554 C.3        1 UNL1     0.0091
     42 C         -0.818863   -2.348561   -0.566626 C.3        1 UNL1     0.0661
     43 C         -4.954722   -6.159997   6.096482 C.2        1 UNL1     0.2131
     44 O         -5.537234   -6.500441   7.110146 O.2        1 UNL1     -0.2851
     45 O         -7.67505   -6.637434   5.609913 O.3        1 UNL1     -0.5056
     46 O         -4.066082   -3.270677   1.377022 O.2        1 UNL1     -0.2836
     47 C         -0.975403   -4.841298   -1.504481 C.3        1 UNL1     -0.0566
     48 O         0.603548   -2.534041   -0.942737 O.3        1 UNL1     -0.3909
     49 C         -0.745067   0.345051   -0.670398 C.3        1 UNL1     -0.0577
     50 O         -3.346929   -1.297716   -2.54959 O.3        1 UNL1     -0.3910
     51 O         -5.533647   0.515536   -2.31458 O.3        1 UNL1     -0.3753
     52 C         -3.380733   0.895296   0.739077 C.3        1 UNL1     -0.0564
     53 O         -2.166969   3.114529   -1.337978 O.3        1 UNL1     -0.4608
     54 C         -1.967538   4.332826   -1.932882 C.2        1 UNL1     0.3042
     55 O         -1.421203   4.556345   -3.012417 O.2        1 UNL1     -0.2512
     56 C         -2.551203   5.481791   -1.160919 C.3        1 UNL1     0.0332
     57 C         -3.903841   1.35364   -4.099432 C.3        1 UNL1     -0.0567
     58 C         -6.739083   -1.5466   2.237081 C.3        1 UNL1     0.0210
     59 C         -6.458818   1.384939   -2.96578 C.3        1 UNL1     0.0372
     60 C         -5.57275   -0.548723   -0.246086 C.2        1 UNL1     -0.0208
     61 C         -5.949174   -1.732898   -0.730626 C.2        1 UNL1     0.0882
     62 H         -2.220189   -3.900911   -0.038023 H        1 UNL1     0.0365
     63 H         -2.442642   -5.379414   1.352938 H        1 UNL1     0.0576
     64 H         0.279775   -6.599868   2.124761 H        1 UNL1     0.0615
     65 H         -2.628802   -7.058192   3.167823 H        1 UNL1     0.0622
     66 H         -6.186604   1.405236   -0.600155 H        1 UNL1     0.0645
     67 H         -4.425281   2.455913   -0.057912 H        1 UNL1     0.0362
     68 H         -3.925197   2.815736   -2.164193 H        1 UNL1     0.0741
     69 H         -1.984009   1.5955   -3.494306 H        1 UNL1     0.0359
     70 H         -1.812256   -0.628693   -3.645888 H        1 UNL1     0.0600
     71 H         -0.158558   -0.804377   -2.253361 H        1 UNL1     0.0348
     72 H         -1.52616   -2.613789   -1.365813 H        1 UNL1     0.0602
     73 H         -5.494729   -0.405141   0.802983 H        1 UNL1     0.0628
     74 H         -5.996857   -1.977875   -1.792205 H        1 UNL1     0.1022
     75 H         0.035037   -9.655452   4.927222 H        1 UNL1     0.0279
     76 H         0.628824   -8.171339   5.558194 H        1 UNL1     0.0279
     77 H         -0.717209   -9.079973   6.356866 H        1 UNL1     0.0279
     78 H         -1.806151   -6.83195   6.746204 H        1 UNL1     0.1553
     79 H         -0.822286   -5.455756   5.714542 H        1 UNL1     0.1484
     80 H         -1.166088   -1.774347   4.83789 H        1 UNL1     0.0317
     81 H         -2.314212   -2.617272   5.868042 H        1 UNL1     0.0317
     82 H         -0.464336   -3.888895   6.988147 H        1 UNL1     0.0428
     83 H         -0.261956   -2.154967   7.107473 H        1 UNL1     0.0428
     84 H         2.028731   -4.138152   4.120356 H        1 UNL1     0.0428
     85 H         1.02269   -5.139146   5.107783 H        1 UNL1     0.0428
     86 H         0.148362   -4.533773   2.850811 H        1 UNL1     0.0317
     87 H         0.163003   -2.863081   3.183868 H        1 UNL1     0.0317
     88 H         3.035546   -2.720684   6.040069 H        1 UNL1     0.0429
     89 H         2.001404   -2.314848   7.41196 H        1 UNL1     0.0429
     90 H         1.899603   -5.194134   6.597141 H        1 UNL1     0.0308
     91 H         4.552863   -3.874234   7.228143 H        1 UNL1     0.0233
     92 H         4.209576   -5.471242   7.940333 H        1 UNL1     0.0233
     93 H         4.232403   -5.267088   6.201827 H        1 UNL1     0.0233
     94 H         2.209513   -5.489696   9.059852 H        1 UNL1     0.0233
     95 H         2.271423   -3.726716   9.209514 H        1 UNL1     0.0233
     96 H         0.797178   -4.515508   8.602555 H        1 UNL1     0.0233
     97 H         -9.710432   -5.348429   4.504884 H        1 UNL1     0.0280
     98 H         -9.57411   -4.204756   3.196979 H        1 UNL1     0.0280
     99 H         -9.553565   -5.958907   2.847314 H        1 UNL1     0.0280
     100 H         -7.122589   -7.031158   6.262133 H        1 UNL1     0.2922
     101 H         -0.007621   -4.574764   -1.92876 H        1 UNL1     0.0236
     102 H         -1.793713   -4.64275   -2.195807 H        1 UNL1     0.0236
     103 H         -0.946944   -5.939753   -1.410783 H        1 UNL1     0.0236
     104 H         0.672036   -2.407121   -1.909262 H        1 UNL1     0.2098
     105 H         -0.352404   1.219841   -1.182619 H        1 UNL1     0.0234
     106 H         -1.568641   0.628833   -0.015326 H        1 UNL1     0.0234
     107 H         0.0   0.0   0.0 H        1 UNL1     0.0234
     108 H         -3.940001   -1.133414   -3.307903 H        1 UNL1     0.2098
     109 H         -2.459699   0.349899   0.490176 H        1 UNL1     0.0234
     110 H         -3.171608   1.627427   1.526474 H        1 UNL1     0.0234
     111 H         -4.038189   0.162149   1.225074 H        1 UNL1     0.0234
     112 H         -2.38779   5.331491   -0.089448 H        1 UNL1     0.0342
     113 H         -2.149651   6.440146   -1.486735 H        1 UNL1     0.0342
     114 H         -3.635559   5.497974   -1.337201 H        1 UNL1     0.0342
     115 H         -3.957481   2.39895   -4.433554 H        1 UNL1     0.0234
     116 H         -3.739996   0.734317   -4.983538 H        1 UNL1     0.0234
     117 H         -4.938627   1.187002   -3.753901 H        1 UNL1     0.0234
     118 H         -5.852024   -1.252931   2.825206 H        1 UNL1     0.0309
     119 H         -7.069   -0.693193   1.636204 H        1 UNL1     0.0309
     120 H         -7.510245   -1.696013   3.000686 H        1 UNL1     0.0309
     121 H         -7.441205   1.207904   -2.528824 H        1 UNL1     0.0524
     122 H         -6.21339   2.448794   -2.810814 H        1 UNL1     0.0524
     123 H         -6.480491   1.17983   -4.032342 H        1 UNL1     0.0524
@<TRIPOS>BOND
     1     1     2    1
     2     1    42    1
     3     2     3    2
     4     3     4    1
     5     4     5    2
     6     5     7    1
     7     6    75    1
     8     6    76    1
     9     6    77    1
    10     7     9   am
    11     9    10    1
    12    10    11    2
    13    10    43    1
    14    11    14    1
    15    11    15    1
    16    12    13   ar
    17    12    27   ar
    18    12    43    1
    19    13    14    1
    20    13    30   ar
    21    14    17    2
    22    15    16    1
    23    16    17    1
    24    16    18    1
    25    16    22    1
    26    18    19    1
    27    19    20    1
    28    20    21    1
    29    21    22    1
    30    23    24    1
    31    23    88    1
    32    23    89    1
    33    24    25    1
    34    24    26    1
    35    24    90    1
    36    25    91    1
    37    25    92    1
    38    25    93    1
    39    26    94    1
    40    26    95    1
    41    26    96    1
    42    27    28   ar
    43    28    29   ar
    44    29    30   ar
    45    29    31    1
    46    30    33    1
    47    31    32    1
    48    32    33    1
    49    32    35    1
    50    34    97    1
    51    34    98    1
    52    34    99    1
    53    35    61    1
    54    36    37    1
    55    36    60    1
    56    37    38    1
    57    38    39    1
    58    39    40    1
    59    40    41    1
    60    41    42    1
    61    45   100    1
    62    47   101    1
    63    47   102    1
    64    47   103    1
    65    48   104    1
    66    49   105    1
    67    49   106    1
    68    49   107    1
    69    50   108    1
    70    51    59    1
    71    52   109    1
    72    52   110    1
    73    52   111    1
    74    53    54    1
    75    54    55    2
    76    54    56    1
    77    56   112    1
    78    56   113    1
    79    56   114    1
    80    57   115    1
    81    57   116    1
    82    57   117    1
    83    58   118    1
    84    58   119    1
    85    58   120    1
    86    59   121    1
    87    59   122    1
    88    59   123    1
    89    60    61    2
    90     1    47    1
    91     1    62    1
    92     2    63    1
    93     3    64    1
    94     4    65    1
    95     5     6    1
    96     7     8    2
    97     9    78    1
    98    15    79    1
    99    18    80    1
   100    18    81    1
   101    19    82    1
   102    19    83    1
   103    20    23    1
   104    21    84    1
   105    21    85    1
   106    22    86    1
   107    22    87    1
   108    27    45    1
   109    28    34    1
   110    32    58    1
   111    33    46    2
   112    36    51    1
   113    36    66    1
   114    37    52    1
   115    37    67    1
   116    38    53    1
   117    38    68    1
   118    42    48    1
   119    42    72    1
   120    43    44    2
   121    60    73    1
   122    61    74    1
   123    39    69    1
   124    39    57    1
   125    40    70    1
   126    40    50    1
   127    41    71    1
   128    41    49    1
