@<TRIPOS>MOLECULE
*****
 123 128 0 0 0
SMALL
GASTEIGER

@<TRIPOS>ATOM
     1 C         -0.114251   0.957059   4.032958 C.3        1 UNL1     0.0009
     2 C         -1.457742   0.555396   5.245697 C.2        1 UNL1     -0.0787
     3 C         -2.626805   0.951931   6.00207 C.2        1 UNL1     -0.0649
     4 C         -3.609953   -0.017071   6.98228 C.2        1 UNL1     -0.0542
     5 C         -4.881608   -0.135088   7.595503 C.2        1 UNL1     0.0115
     6 C         -6.195988   0.626947   7.91959 C.3        1 UNL1     -0.0348
     7 C         -5.369095   -1.578431   8.101573 C.2        1 UNL1     0.2441
     8 O         -5.342059   -1.915428   9.277255 O.2        1 UNL1     -0.2702
     9 N         -6.0706   -2.332133   7.144507 N.am        1 UNL1     -0.2772
     10 C         -5.197069   -3.074725   6.383703 C.2        1 UNL1     0.1049
     11 C         -4.625339   -2.445331   5.373154 C.2        1 UNL1     0.0801
     12 C         -3.255582   -4.642637   6.555778 C.ar        1 UNL1     0.0753
     13 C         -2.593353   -3.802401   5.604956 C.ar        1 UNL1     0.0305
     14 C         -3.307829   -2.750645   4.884966 C.2        1 UNL1     0.0924
     15 N         -4.908924   -1.249771   4.828412 N.pl3        1 UNL1     -0.3170
     16 C         -4.105272   -1.104935   3.643751 C.3        1 UNL1     0.1275
     17 N         -2.884688   -1.951917   3.909306 N.2        1 UNL1     -0.2557
     18 C         -4.854224   -1.787301   2.503072 C.3        1 UNL1     0.0016
     19 C         -6.242461   -1.176191   2.398519 C.3        1 UNL1     0.0026
     20 N         -6.10715   0.253345   2.155317 N.3        1 UNL1     -0.3018
     21 C         -5.347008   0.987272   3.169173 C.3        1 UNL1     0.0026
     22 C         -3.954601   0.359688   3.254232 C.3        1 UNL1     0.0016
     23 C         -7.349999   0.875625   1.744539 C.3        1 UNL1     0.0012
     24 C         -8.487379   0.491974   2.704194 C.3        1 UNL1     -0.0339
     25 C         -9.830228   0.371522   1.965071 C.3        1 UNL1     -0.0615
     26 C         -8.137591   -0.789601   3.440395 C.3        1 UNL1     -0.0615
     27 C         -2.599375   -5.719102   7.148008 C.ar        1 UNL1     0.1347
     28 C         -1.298743   -6.076517   6.84034 C.ar        1 UNL1     0.0342
     29 C         -0.650805   -5.205949   5.938424 C.ar        1 UNL1     0.1435
     30 C         -1.283926   -4.102692   5.364663 C.ar        1 UNL1     0.0774
     31 O         0.580607   -5.480498   5.45546 O.3        1 UNL1     -0.4436
     32 C         0.692061   -4.679069   4.269642 C.3        1 UNL1     0.3143
     33 C         -0.297299   -3.547503   4.461834 C.2        1 UNL1     0.2504
     34 C         -0.617422   -7.355241   7.241299 C.3        1 UNL1     -0.0327
     35 O         2.000255   -4.094369   4.272075 O.2        1 UNL1     -0.4528
     36 C         2.953924   -3.662612   0.623487 C.3        1 UNL1     0.0854
     37 C         2.203898   -2.870025   -0.515279 C.3        1 UNL1     0.0236
     38 C         3.09177   -1.767372   -1.268661 C.3        1 UNL1     0.1131
     39 C         3.899798   -0.700206   -0.42574 C.3        1 UNL1     0.0200
     40 C         3.192012   0.054698   0.882541 C.3        1 UNL1     0.0661
     41 C         1.671788   0.807311   0.892733 C.3        1 UNL1     0.0091
     42 C         0.435495   0.974097   2.237784 C.3        1 UNL1     0.0661
     43 C         -4.692129   -4.383922   6.823466 C.2        1 UNL1     0.2131
     44 O         -5.452902   -5.2186   7.278741 O.2        1 UNL1     -0.2851
     45 O         -3.301081   -6.45931   8.097292 O.3        1 UNL1     -0.5056
     46 O         -0.266223   -2.431638   3.993079 O.2        1 UNL1     -0.2836
     47 C         0.968527   1.845568   4.702379 C.3        1 UNL1     -0.0566
     48 O         0.217749   2.423596   2.012714 O.3        1 UNL1     -0.3909
     49 C         0.916688   0.398851   -0.352449 C.3        1 UNL1     -0.0577
     50 O         3.357487   -0.71598   2.05574 O.3        1 UNL1     -0.3910
     51 O         4.240865   -3.192895   0.956021 O.3        1 UNL1     -0.3753
     52 C         0.70043   -2.626517   -0.161391 C.3        1 UNL1     -0.0564
     53 O         2.485597   -1.283734   -2.553563 O.3        1 UNL1     -0.4608
     54 C         2.535398   0.003388   -3.021288 C.2        1 UNL1     0.3042
     55 O         1.63763   0.844193   -2.991311 O.2        1 UNL1     -0.2512
     56 C         3.878407   0.392018   -3.570839 C.3        1 UNL1     0.0332
     57 C         5.390685   -1.252328   -0.250834 C.3        1 UNL1     -0.0567
     58 C         0.214236   -5.565578   3.096051 C.3        1 UNL1     0.0210
     59 C         5.313914   -4.028695   0.524894 C.3        1 UNL1     0.0372
     60 C         2.200774   -3.791591   1.900707 C.2        1 UNL1     -0.0208
     61 C         2.602868   -3.627519   3.161717 C.2        1 UNL1     0.0882
     62 H         0.238836   -0.078337   4.110385 H        1 UNL1     0.0365
     63 H         -1.176745   -0.460305   5.531813 H        1 UNL1     0.0576
     64 H         -3.090324   1.931816   5.867599 H        1 UNL1     0.0615
     65 H         -3.024295   -0.93052   7.11681 H        1 UNL1     0.0622
     66 H         3.05486   -4.683434   0.228794 H        1 UNL1     0.0645
     67 H         2.060439   -3.619017   -1.313396 H        1 UNL1     0.0362
     68 H         3.854043   -2.421331   -1.718995 H        1 UNL1     0.0741
     69 H         4.155059   0.13092   -1.06954 H        1 UNL1     0.0359
     70 H         3.887445   0.906192   1.010567 H        1 UNL1     0.0600
     71 H         1.967487   1.843722   0.637055 H        1 UNL1     0.0348
     72 H         1.390505   0.741348   2.730834 H        1 UNL1     0.0602
     73 H         1.234455   -4.18218   1.698429 H        1 UNL1     0.0628
     74 H         3.553671   -3.179535   3.452443 H        1 UNL1     0.1022
     75 H         -6.748477   0.120973   8.747708 H        1 UNL1     0.0279
     76 H         -6.088239   1.641845   8.295676 H        1 UNL1     0.0279
     77 H         -6.931324   0.572651   7.103481 H        1 UNL1     0.0279
     78 H         -6.569494   -1.706676   6.515233 H        1 UNL1     0.1553
     79 H         -5.78351   -0.774007   4.953637 H        1 UNL1     0.1484
     80 H         -4.287363   -1.655072   1.573583 H        1 UNL1     0.0317
     81 H         -4.928448   -2.866603   2.674096 H        1 UNL1     0.0317
     82 H         -6.841294   -1.369266   3.300757 H        1 UNL1     0.0428
     83 H         -6.759759   -1.678379   1.580436 H        1 UNL1     0.0428
     84 H         -5.192022   2.042299   2.922781 H        1 UNL1     0.0428
     85 H         -5.87159   1.012964   4.134301 H        1 UNL1     0.0428
     86 H         -3.387352   1.000495   3.903526 H        1 UNL1     0.0317
     87 H         -3.440583   0.456137   2.290085 H        1 UNL1     0.0317
     88 H         -7.214893   1.964551   1.78032 H        1 UNL1     0.0429
     89 H         -7.602099   0.61671   0.708112 H        1 UNL1     0.0429
     90 H         -8.581872   1.264698   3.476322 H        1 UNL1     0.0308
     91 H         -9.724853   -0.202945   1.039875 H        1 UNL1     0.0233
     92 H         -10.57946   -0.106371   2.600586 H        1 UNL1     0.0233
     93 H         -10.243237   1.348845   1.687403 H        1 UNL1     0.0233
     94 H         -9.048096   -1.272971   3.810759 H        1 UNL1     0.0233
     95 H         -7.63843   -1.486344   2.761167 H        1 UNL1     0.0233
     96 H         -7.479498   -0.593909   4.291622 H        1 UNL1     0.0233
     97 H         -0.274412   -7.921432   6.380484 H        1 UNL1     0.0280
     98 H         0.27372   -7.174097   7.856366 H        1 UNL1     0.0280
     99 H         -1.320155   -7.984812   7.811299 H        1 UNL1     0.0280
     100 H         -4.017946   -6.001025   8.499414 H        1 UNL1     0.2922
     101 H         0.676633   2.893464   4.636287 H        1 UNL1     0.0236
     102 H         1.968842   1.673888   4.306299 H        1 UNL1     0.0236
     103 H         1.056552   1.647235   5.783632 H        1 UNL1     0.0236
     104 H         1.083441   2.821722   1.795821 H        1 UNL1     0.2098
     105 H         0.685092   1.219542   -1.02672 H        1 UNL1     0.0234
     106 H         1.361977   -0.429052   -0.90401 H        1 UNL1     0.0234
     107 H         0.0   -0.0   0.0 H        1 UNL1     0.0234
     108 H         2.728749   -1.461498   2.004184 H        1 UNL1     0.2098
     109 H         0.147151   -3.566509   -0.027192 H        1 UNL1     0.0234
     110 H         0.563234   -1.991486   0.720458 H        1 UNL1     0.0234
     111 H         0.178497   -2.086157   -0.962355 H        1 UNL1     0.0234
     112 H         3.856036   1.433262   -3.906483 H        1 UNL1     0.0342
     113 H         4.678212   0.231121   -2.849542 H        1 UNL1     0.0342
     114 H         4.086981   -0.23936   -4.445495 H        1 UNL1     0.0342
     115 H         6.127668   -0.437789   -0.226952 H        1 UNL1     0.0234
     116 H         5.538321   -1.855161   0.647412 H        1 UNL1     0.0234
     117 H         5.747508   -1.83725   -1.115985 H        1 UNL1     0.0234
     118 H         1.044734   -5.849984   2.42643 H        1 UNL1     0.0309
     119 H         -0.306245   -6.470477   3.425382 H        1 UNL1     0.0309
     120 H         -0.479823   -5.042192   2.429376 H        1 UNL1     0.0309
     121 H         6.158435   -3.850348   1.189975 H        1 UNL1     0.0524
     122 H         5.061375   -5.100212   0.589015 H        1 UNL1     0.0524
     123 H         5.58689   -3.791474   -0.499462 H        1 UNL1     0.0524
@<TRIPOS>BOND
     1     1     2    1
     2     1    42    1
     3     2     3    2
     4     3     4    1
     5     4     5    2
     6     5     7    1
     7     6    75    1
     8     6    76    1
     9     6    77    1
    10     7     9   am
    11     9    10    1
    12    10    11    2
    13    10    43    1
    14    11    14    1
    15    11    15    1
    16    12    13   ar
    17    12    27   ar
    18    12    43    1
    19    13    14    1
    20    13    30   ar
    21    14    17    2
    22    15    16    1
    23    16    17    1
    24    16    18    1
    25    16    22    1
    26    18    19    1
    27    19    20    1
    28    20    21    1
    29    21    22    1
    30    23    24    1
    31    23    88    1
    32    23    89    1
    33    24    25    1
    34    24    26    1
    35    24    90    1
    36    25    91    1
    37    25    92    1
    38    25    93    1
    39    26    94    1
    40    26    95    1
    41    26    96    1
    42    27    28   ar
    43    28    29   ar
    44    29    30   ar
    45    29    31    1
    46    30    33    1
    47    31    32    1
    48    32    33    1
    49    32    35    1
    50    34    97    1
    51    34    98    1
    52    34    99    1
    53    35    61    1
    54    36    37    1
    55    36    60    1
    56    37    38    1
    57    38    39    1
    58    39    40    1
    59    40    41    1
    60    41    42    1
    61    45   100    1
    62    47   101    1
    63    47   102    1
    64    47   103    1
    65    48   104    1
    66    49   105    1
    67    49   106    1
    68    49   107    1
    69    50   108    1
    70    51    59    1
    71    52   109    1
    72    52   110    1
    73    52   111    1
    74    53    54    1
    75    54    55    2
    76    54    56    1
    77    56   112    1
    78    56   113    1
    79    56   114    1
    80    57   115    1
    81    57   116    1
    82    57   117    1
    83    58   118    1
    84    58   119    1
    85    58   120    1
    86    59   121    1
    87    59   122    1
    88    59   123    1
    89    60    61    2
    90     1    47    1
    91     1    62    1
    92     2    63    1
    93     3    64    1
    94     4    65    1
    95     5     6    1
    96     7     8    2
    97     9    78    1
    98    15    79    1
    99    18    80    1
   100    18    81    1
   101    19    82    1
   102    19    83    1
   103    20    23    1
   104    21    84    1
   105    21    85    1
   106    22    86    1
   107    22    87    1
   108    27    45    1
   109    28    34    1
   110    32    58    1
   111    33    46    2
   112    36    51    1
   113    36    66    1
   114    37    52    1
   115    37    67    1
   116    38    53    1
   117    38    68    1
   118    42    48    1
   119    42    72    1
   120    43    44    2
   121    60    73    1
   122    61    74    1
   123    39    69    1
   124    39    57    1
   125    40    70    1
   126    40    50    1
   127    41    71    1
   128    41    49    1
