@<TRIPOS>MOLECULE
*****
 123 128 0 0 0
SMALL
GASTEIGER

@<TRIPOS>ATOM
     1 C         -1.380456   -4.284549   -2.716051 C.3        1 UNL1     0.0009
     2 C         -0.761103   -5.858204   -3.47569 C.2        1 UNL1     -0.0787
     3 C         -0.170465   -6.566895   -4.591463 C.2        1 UNL1     -0.0649
     4 C         0.32271   -8.18535   -4.652631 C.2        1 UNL1     -0.0542
     5 C         1.136742   -9.126224   -5.330264 C.2        1 UNL1     0.0115
     6 C         2.017691   -9.348629   -6.590338 C.3        1 UNL1     -0.0348
     7 C         1.493014   -10.511958   -4.602389 C.2        1 UNL1     0.2441
     8 O         0.938546   -11.568041   -4.874012 O.2        1 UNL1     -0.2702
     9 N         2.661009   -10.483343   -3.820647 N.am        1 UNL1     -0.2772
     10 C         2.371459   -10.073184   -2.539533 C.2        1 UNL1     0.1049
     11 C         2.291294   -8.768598   -2.350188 C.2        1 UNL1     0.0801
     12 C         0.80848   -10.485188   -0.630428 C.ar        1 UNL1     0.0753
     13 C         0.594398   -9.070265   -0.602652 C.ar        1 UNL1     0.0305
     14 C         1.430073   -8.154635   -1.376164 C.2        1 UNL1     0.0924
     15 N         2.651145   -7.755021   -3.156225 N.pl3        1 UNL1     -0.3170
     16 C         2.516769   -6.531756   -2.410691 C.3        1 UNL1     0.1275
     17 N         1.439852   -6.824791   -1.394767 N.2        1 UNL1     -0.2557
     18 C         3.806331   -6.341422   -1.617908 C.3        1 UNL1     0.0016
     19 C         4.979263   -6.361546   -2.585077 C.3        1 UNL1     0.0026
     20 N         4.800652   -5.293773   -3.559236 N.3        1 UNL1     -0.3018
     21 C         3.556798   -5.356553   -4.329467 C.3        1 UNL1     0.0026
     22 C         2.391855   -5.330418   -3.338448 C.3        1 UNL1     0.0016
     23 C         5.996015   -5.03377   -4.336505 C.3        1 UNL1     0.0012
     24 C         7.076157   -4.379397   -3.460808 C.3        1 UNL1     -0.0339
     25 C         7.741339   -5.404873   -2.528076 C.3        1 UNL1     -0.0615
     26 C         8.098084   -3.673436   -4.334916 C.3        1 UNL1     -0.0615
     27 C         0.08859   -11.340517   0.200409 C.ar        1 UNL1     0.1347
     28 C         -0.839559   -10.895856   1.124999 C.ar        1 UNL1     0.0342
     29 C         -1.068988   -9.503766   1.100246 C.ar        1 UNL1     0.1435
     30 C         -0.38143   -8.638609   0.248198 C.ar        1 UNL1     0.0774
     31 O         -1.862276   -8.903888   2.014493 O.3        1 UNL1     -0.4436
     32 C         -1.481088   -7.520458   1.973392 C.3        1 UNL1     0.3143
     33 C         -0.863143   -7.320321   0.604341 C.2        1 UNL1     0.2504
     34 C         -1.46229   -11.721417   2.216216 C.3        1 UNL1     -0.0327
     35 O         -2.685969   -6.745512   2.004599 O.2        1 UNL1     -0.4528
     36 C         -1.78391   -3.488368   3.732427 C.3        1 UNL1     0.0854
     37 C         -0.680491   -2.428993   3.34809 C.3        1 UNL1     0.0236
     38 C         -1.218918   -0.930148   3.160186 C.3        1 UNL1     0.1131
     39 C         -2.462782   -0.654475   2.222596 C.3        1 UNL1     0.0200
     40 C         -2.585071   -1.405977   0.738437 C.3        1 UNL1     0.0661
     41 C         -1.371985   -1.470622   -0.445562 C.3        1 UNL1     0.0091
     42 C         -0.981516   -2.770771   -1.679479 C.3        1 UNL1     0.0661
     43 C         1.885984   -11.003504   -1.5094 C.2        1 UNL1     0.2131
     44 O         2.426269   -12.082617   -1.34709 O.2        1 UNL1     -0.2851
     45 O         0.324895   -12.708271   0.07857 O.3        1 UNL1     -0.5056
     46 O         -0.802087   -6.305971   -0.053854 O.2        1 UNL1     -0.2836
     47 C         -2.754424   -3.895917   -3.325279 C.3        1 UNL1     -0.0566
     48 O         -0.866554   -1.82103   -2.812569 O.3        1 UNL1     -0.3909
     49 C         -0.060689   -1.043623   0.175461 C.3        1 UNL1     -0.0577
     50 O         -3.203171   -2.670607   0.866451 O.3        1 UNL1     -0.3910
     51 O         -3.116988   -3.031479   3.692613 O.3        1 UNL1     -0.3753
     52 C         0.414672   -3.04186   2.415373 C.3        1 UNL1     -0.0564
     53 O         -0.129454   0.101925   3.145388 O.3        1 UNL1     -0.4608
     54 C         -0.106687   1.222801   2.357322 C.2        1 UNL1     0.3042
     55 O         -0.938204   2.129044   2.323524 O.2        1 UNL1     -0.2512
     56 C         1.122072   1.330202   1.499808 C.3        1 UNL1     0.0332
     57 C         -3.766145   -0.617486   3.148907 C.3        1 UNL1     -0.0567
     58 C         -0.383881   -7.336967   3.047635 C.3        1 UNL1     0.0210
     59 C         -3.72796   -2.853384   4.969665 C.3        1 UNL1     0.0372
     60 C         -1.740317   -4.753793   2.950149 C.2        1 UNL1     -0.0208
     61 C         -2.723597   -5.453182   2.38203 C.2        1 UNL1     0.0882
     62 H         -1.592535   -4.836403   -1.792367 H        1 UNL1     0.0365
     63 H         -1.015227   -6.575936   -2.692906 H        1 UNL1     0.0576
     64 H         0.171834   -6.042223   -5.486258 H        1 UNL1     0.0615
     65 H         -0.133494   -8.630552   -3.764287 H        1 UNL1     0.0622
     66 H         -1.549681   -3.767017   4.769509 H        1 UNL1     0.0645
     67 H         -0.07264   -2.330601   4.264275 H        1 UNL1     0.0362
     68 H         -1.575044   -0.733063   4.182856 H        1 UNL1     0.0741
     69 H         -2.474014   0.394662   1.958788 H        1 UNL1     0.0359
     70 H         -3.355651   -0.768165   0.264662 H        1 UNL1     0.0600
     71 H         -1.633427   -0.572849   -1.039372 H        1 UNL1     0.0348
     72 H         -2.017571   -2.956349   -1.360942 H        1 UNL1     0.0602
     73 H         -0.757705   -5.15415   2.988052 H        1 UNL1     0.0628
     74 H         -3.743207   -5.08921   2.25104 H        1 UNL1     0.1022
     75 H         1.486035   -8.99725   -7.507349 H        1 UNL1     0.0279
     76 H         2.951654   -8.79283   -6.63358 H        1 UNL1     0.0279
     77 H         2.168132   -10.413344   -6.821527 H        1 UNL1     0.0279
     78 H         3.320018   -9.815106   -4.214657 H        1 UNL1     0.1553
     79 H         3.285395   -7.854877   -3.927385 H        1 UNL1     0.1484
     80 H         3.753561   -5.391677   -1.072046 H        1 UNL1     0.0317
     81 H         3.923199   -7.1291   -0.865874 H        1 UNL1     0.0317
     82 H         5.080623   -7.337687   -3.081854 H        1 UNL1     0.0428
     83 H         5.888601   -6.226054   -1.998735 H        1 UNL1     0.0428
     84 H         3.410012   -4.501047   -4.996081 H        1 UNL1     0.0428
     85 H         3.535732   -6.225368   -5.001801 H        1 UNL1     0.0428
     86 H         1.504237   -5.243259   -3.937217 H        1 UNL1     0.0317
     87 H         2.406152   -4.393699   -2.767966 H        1 UNL1     0.0317
     88 H         6.379407   -5.99424   -4.705021 H        1 UNL1     0.0429
     89 H         5.772969   -4.417394   -5.216906 H        1 UNL1     0.0429
     90 H         6.615229   -3.596495   -2.84695 H        1 UNL1     0.0308
     91 H         7.620928   -5.123798   -1.477552 H        1 UNL1     0.0233
     92 H         7.318352   -6.400081   -2.683805 H        1 UNL1     0.0233
     93 H         8.818679   -5.498477   -2.71087 H        1 UNL1     0.0233
     94 H         7.843121   -2.612633   -4.432526 H        1 UNL1     0.0233
     95 H         9.089937   -3.74122   -3.87929 H        1 UNL1     0.0233
     96 H         8.138571   -4.112615   -5.335641 H        1 UNL1     0.0233
     97 H         -1.267085   -11.308444   3.201396 H        1 UNL1     0.0280
     98 H         -2.55495   -11.773586   2.123326 H        1 UNL1     0.0280
     99 H         -1.053996   -12.744801   2.183408 H        1 UNL1     0.0280
     100 H         0.30217   -13.032372   -0.804643 H        1 UNL1     0.2922
     101 H         -2.60232   -3.32685   -4.242167 H        1 UNL1     0.0236
     102 H         -3.40261   -3.373521   -2.62247 H        1 UNL1     0.0236
     103 H         -3.333974   -4.780572   -3.637848 H        1 UNL1     0.0236
     104 H         -0.930046   -0.916902   -2.447205 H        1 UNL1     0.2098
     105 H         0.001453   -1.204721   1.248772 H        1 UNL1     0.0234
     106 H         0.827012   -1.439191   -0.317935 H        1 UNL1     0.0234
     107 H         0.0   0.0   0.0 H        1 UNL1     0.0234
     108 H         -4.16716   -2.530793   0.796129 H        1 UNL1     0.2098
     109 H         0.945694   -3.87819   2.891062 H        1 UNL1     0.0234
     110 H         0.022752   -3.361792   1.443887 H        1 UNL1     0.0234
     111 H         1.188091   -2.304992   2.160826 H        1 UNL1     0.0234
     112 H         0.850365   1.693325   0.503985 H        1 UNL1     0.0342
     113 H         1.883286   1.96383   1.952481 H        1 UNL1     0.0342
     114 H         1.550266   0.32474   1.386396 H        1 UNL1     0.0342
     115 H         -4.510838   0.099983   2.777613 H        1 UNL1     0.0234
     116 H         -4.264278   -1.583432   3.25312 H        1 UNL1     0.0234
     117 H         -3.575252   -0.221769   4.161285 H        1 UNL1     0.0234
     118 H         -0.738576   -6.737661   3.90439 H        1 UNL1     0.0309
     119 H         0.019174   -8.2855   3.416464 H        1 UNL1     0.0309
     120 H         0.474825   -6.765821   2.678146 H        1 UNL1     0.0309
     121 H         -3.222292   -2.024572   5.464365 H        1 UNL1     0.0524
     122 H         -4.795887   -2.590432   4.88951 H        1 UNL1     0.0524
     123 H         -3.631286   -3.758786   5.562113 H        1 UNL1     0.0524
@<TRIPOS>BOND
     1     1     2    1
     2     1    42    1
     3     2     3    2
     4     3     4    1
     5     4     5    2
     6     5     7    1
     7     6    75    1
     8     6    76    1
     9     6    77    1
    10     7     9   am
    11     9    10    1
    12    10    11    2
    13    10    43    1
    14    11    14    1
    15    11    15    1
    16    12    13   ar
    17    12    27   ar
    18    12    43    1
    19    13    14    1
    20    13    30   ar
    21    14    17    2
    22    15    16    1
    23    16    17    1
    24    16    18    1
    25    16    22    1
    26    18    19    1
    27    19    20    1
    28    20    21    1
    29    21    22    1
    30    23    24    1
    31    23    88    1
    32    23    89    1
    33    24    25    1
    34    24    26    1
    35    24    90    1
    36    25    91    1
    37    25    92    1
    38    25    93    1
    39    26    94    1
    40    26    95    1
    41    26    96    1
    42    27    28   ar
    43    28    29   ar
    44    29    30   ar
    45    29    31    1
    46    30    33    1
    47    31    32    1
    48    32    33    1
    49    32    35    1
    50    34    97    1
    51    34    98    1
    52    34    99    1
    53    35    61    1
    54    36    37    1
    55    36    60    1
    56    37    38    1
    57    38    39    1
    58    39    40    1
    59    40    41    1
    60    41    42    1
    61    45   100    1
    62    47   101    1
    63    47   102    1
    64    47   103    1
    65    48   104    1
    66    49   105    1
    67    49   106    1
    68    49   107    1
    69    50   108    1
    70    51    59    1
    71    52   109    1
    72    52   110    1
    73    52   111    1
    74    53    54    1
    75    54    55    2
    76    54    56    1
    77    56   112    1
    78    56   113    1
    79    56   114    1
    80    57   115    1
    81    57   116    1
    82    57   117    1
    83    58   118    1
    84    58   119    1
    85    58   120    1
    86    59   121    1
    87    59   122    1
    88    59   123    1
    89    60    61    2
    90     1    47    1
    91     1    62    1
    92     2    63    1
    93     3    64    1
    94     4    65    1
    95     5     6    1
    96     7     8    2
    97     9    78    1
    98    15    79    1
    99    18    80    1
   100    18    81    1
   101    19    82    1
   102    19    83    1
   103    20    23    1
   104    21    84    1
   105    21    85    1
   106    22    86    1
   107    22    87    1
   108    27    45    1
   109    28    34    1
   110    32    58    1
   111    33    46    2
   112    36    51    1
   113    36    66    1
   114    37    52    1
   115    37    67    1
   116    38    53    1
   117    38    68    1
   118    42    48    1
   119    42    72    1
   120    43    44    2
   121    60    73    1
   122    61    74    1
   123    39    69    1
   124    39    57    1
   125    40    70    1
   126    40    50    1
   127    41    71    1
   128    41    49    1
