@<TRIPOS>MOLECULE
*****
 123 128 0 0 0
SMALL
GASTEIGER

@<TRIPOS>ATOM
     1 C         5.027814   -0.476622   -2.114171 C.3        1 UNL1     0.0009
     2 C         6.085065   -0.289042   -3.625485 C.2        1 UNL1     -0.0787
     3 C         6.763995   -0.871826   -4.763669 C.2        1 UNL1     -0.0649
     4 C         7.579246   -0.069447   -6.011832 C.2        1 UNL1     -0.0542
     5 C         8.068479   -0.178047   -7.336949 C.2        1 UNL1     0.0115
     6 C         8.332675   -1.171784   -8.501427 C.3        1 UNL1     -0.0348
     7 C         8.42051   1.162203   -8.147378 C.2        1 UNL1     0.2441
     8 O         9.565506   1.562791   -8.305613 O.2        1 UNL1     -0.2702
     9 N         7.352077   1.703106   -8.883602 N.am        1 UNL1     -0.2772
     10 C         6.617014   2.563931   -8.101307 C.2        1 UNL1     0.1049
     11 C         5.710253   2.008308   -7.318178 C.2        1 UNL1     0.0801
     12 C         6.840107   4.50052   -6.533766 C.ar        1 UNL1     0.0753
     13 C         6.016372   3.760495   -5.626886 C.ar        1 UNL1     0.0305
     14 C         5.317525   2.547039   -6.044243 C.2        1 UNL1     0.0924
     15 N         5.233898   0.751555   -7.304627 N.pl3        1 UNL1     -0.3170
     16 C         4.138151   0.706992   -6.373173 C.3        1 UNL1     0.1275
     17 N         4.445125   1.797657   -5.376207 N.2        1 UNL1     -0.2557
     18 C         2.888522   1.158272   -7.123158 C.3        1 UNL1     0.0016
     19 C         2.70917   0.273138   -8.346253 C.3        1 UNL1     0.0026
     20 N         2.586466   -1.110444   -7.90845 N.3        1 UNL1     -0.3018
     21 C         3.714952   -1.616939   -7.124645 C.3        1 UNL1     0.0026
     22 C         3.87407   -0.715944   -5.898765 C.3        1 UNL1     0.0016
     23 C         2.116458   -1.994077   -8.956749 C.3        1 UNL1     0.0012
     24 C         1.938387   -3.422211   -8.417788 C.3        1 UNL1     -0.0339
     25 C         0.457071   -3.833515   -8.393552 C.3        1 UNL1     -0.0615
     26 C         2.775132   -4.394045   -9.23153 C.3        1 UNL1     -0.0615
     27 C         7.405102   5.719164   -6.165249 C.ar        1 UNL1     0.1347
     28 C         7.186319   6.315482   -4.936189 C.ar        1 UNL1     0.0342
     29 C         6.41219   5.545636   -4.042195 C.ar        1 UNL1     0.1435
     30 C         5.869563   4.306519   -4.384782 C.ar        1 UNL1     0.0774
     31 O         6.019434   6.0371   -2.846698 O.3        1 UNL1     -0.4436
     32 C         4.911249   5.210051   -2.460966 C.3        1 UNL1     0.3143
     33 C         5.100491   3.9137   -3.222462 C.2        1 UNL1     0.2504
     34 C         7.54836   7.726267   -4.563746 C.3        1 UNL1     -0.0327
     35 O         5.071725   4.904235   -1.070292 O.2        1 UNL1     -0.4528
     36 C         1.563008   4.472044   0.311808 C.3        1 UNL1     0.0854
     37 C         0.42565   3.481336   -0.149103 C.3        1 UNL1     0.0236
     38 C         -0.162592   2.541626   1.009629 C.3        1 UNL1     0.1131
     39 C         0.825235   1.709543   1.922922 C.3        1 UNL1     0.0200
     40 C         2.119539   0.900914   1.249621 C.3        1 UNL1     0.0661
     41 C         2.053239   -0.142941   -0.085887 C.3        1 UNL1     0.0091
     42 C         3.293859   -0.481905   -1.39408 C.3        1 UNL1     0.0661
     43 C         6.999911   3.970858   -7.910785 C.2        1 UNL1     0.2131
     44 O         7.323198   4.657763   -8.862827 O.2        1 UNL1     -0.2851
     45 O         8.231352   6.353302   -7.090786 O.3        1 UNL1     -0.5056
     46 O         4.721135   2.802991   -2.925365 O.2        1 UNL1     -0.2836
     47 C         5.853912   -1.087955   -0.950635 C.3        1 UNL1     -0.0566
     48 O         3.159822   -1.955681   -1.298495 O.3        1 UNL1     -0.3909
     49 C         0.719778   0.033489   -0.777443 C.3        1 UNL1     -0.0577
     50 O         3.241682   1.753429   1.14129 O.3        1 UNL1     -0.3910
     51 O         2.040925   4.292752   1.625917 O.3        1 UNL1     -0.3753
     52 C         0.664099   2.957766   -1.603051 C.3        1 UNL1     -0.0564
     53 O         -1.455688   1.873988   0.642903 O.3        1 UNL1     -0.4608
     54 C         -2.500279   1.639896   1.49845 C.2        1 UNL1     0.3042
     55 O         -3.670038   1.996942   1.364209 O.2        1 UNL1     -0.2512
     56 C         -2.127121   0.801837   2.68804 C.3        1 UNL1     0.0332
     57 C         1.087857   2.561784   3.250661 C.3        1 UNL1     -0.0567
     58 C         3.637321   5.91411   -2.983401 C.3        1 UNL1     0.0210
     59 C         1.581393   3.10777   2.274386 C.3        1 UNL1     0.0372
     60 C         2.756299   4.516528   -0.576583 C.2        1 UNL1     -0.0208
     61 C         4.056344   4.508208   -0.278996 C.2        1 UNL1     0.0882
     62 H         5.058024   0.611574   -1.981402 H        1 UNL1     0.0365
     63 H         6.317755   0.776917   -3.580142 H        1 UNL1     0.0576
     64 H         6.663315   -1.931366   -5.009325 H        1 UNL1     0.0615
     65 H         7.695628   0.949951   -5.633988 H        1 UNL1     0.0622
     66 H         1.1033   5.468424   0.249026 H        1 UNL1     0.0645
     67 H         -0.435792   4.139828   -0.356147 H        1 UNL1     0.0362
     68 H         -0.592328   3.310552   1.66963 H        1 UNL1     0.0741
     69 H         0.270253   0.912933   2.400223 H        1 UNL1     0.0359
     70 H         2.371232   0.216877   2.082571 H        1 UNL1     0.0600
     71 H         1.902708   -1.110345   0.432214 H        1 UNL1     0.0348
     72 H         3.849622   -0.03292   -0.558104 H        1 UNL1     0.0602
     73 H         2.441704   4.690845   -1.575529 H        1 UNL1     0.0628
     74 H         4.461742   4.279573   0.707217 H        1 UNL1     0.1022
     75 H         7.925557   -2.181945   -8.254722 H        1 UNL1     0.0279
     76 H         7.84755   -0.948731   -9.44904 H        1 UNL1     0.0279
     77 H         9.401179   -1.395482   -8.635439 H        1 UNL1     0.0279
     78 H         6.730247   0.95523   -9.183744 H        1 UNL1     0.1553
     79 H         5.317528   0.115865   -8.076532 H        1 UNL1     0.1484
     80 H         2.024624   1.092203   -6.450788 H        1 UNL1     0.0317
     81 H         2.971094   2.207849   -7.425188 H        1 UNL1     0.0317
     82 H         3.538648   0.390675   -9.059038 H        1 UNL1     0.0428
     83 H         1.813724   0.613336   -8.867302 H        1 UNL1     0.0428
     84 H         3.562749   -2.630595   -6.741046 H        1 UNL1     0.0428
     85 H         4.629772   -1.694674   -7.728283 H        1 UNL1     0.0428
     86 H         4.616592   -1.190934   -5.284735 H        1 UNL1     0.0317
     87 H         2.968448   -0.7597   -5.281487 H        1 UNL1     0.0317
     88 H         1.141103   -1.626482   -9.301495 H        1 UNL1     0.0429
     89 H         2.790364   -1.978906   -9.823002 H        1 UNL1     0.0429
     90 H         2.331342   -3.471876   -7.395372 H        1 UNL1     0.0308
     91 H         0.07958   -4.020279   -9.403365 H        1 UNL1     0.0233
     92 H         0.315075   -4.730371   -7.78602 H        1 UNL1     0.0233
     93 H         -0.183793   -3.06061   -7.95225 H        1 UNL1     0.0233
     94 H         2.708139   -5.400201   -8.803746 H        1 UNL1     0.0233
     95 H         2.402338   -4.438914   -10.258649 H        1 UNL1     0.0233
     96 H         3.827158   -4.09597   -9.250548 H        1 UNL1     0.0233
     97 H         8.240182   7.762151   -3.72749 H        1 UNL1     0.0280
     98 H         8.044039   8.257349   -5.386856 H        1 UNL1     0.0280
     99 H         6.637145   8.279083   -4.282362 H        1 UNL1     0.0280
     100 H         8.114346   7.285441   -7.145999 H        1 UNL1     0.2922
     101 H         6.522834   -1.855909   -1.338508 H        1 UNL1     0.0236
     102 H         5.235096   -1.458907   -0.134275 H        1 UNL1     0.0236
     103 H         6.521674   -0.34574   -0.482229 H        1 UNL1     0.0236
     104 H         2.444011   -2.146023   -0.661035 H        1 UNL1     0.2098
     105 H         0.605034   0.981781   -1.296467 H        1 UNL1     0.0234
     106 H         0.432316   -0.791232   -1.42946 H        1 UNL1     0.0234
     107 H         -0.0   0.0   0.0 H        1 UNL1     0.0234
     108 H         3.368114   1.94741   0.192526 H        1 UNL1     0.2098
     109 H         -0.196248   2.392684   -1.988017 H        1 UNL1     0.0234
     110 H         0.925866   3.752983   -2.309345 H        1 UNL1     0.0234
     111 H         1.517607   2.268377   -1.65008 H        1 UNL1     0.0234
     112 H         -2.900515   0.883086   3.457849 H        1 UNL1     0.0342
     113 H         -1.952798   -0.238511   2.417613 H        1 UNL1     0.0342
     114 H         -1.191921   1.198041   3.107072 H        1 UNL1     0.0342
     115 H         0.609493   3.549758   3.203096 H        1 UNL1     0.0234
     116 H         0.745235   2.074784   4.165806 H        1 UNL1     0.0234
     117 H         2.145654   2.843701   3.390409 H        1 UNL1     0.0234
     118 H         2.724634   5.329574   -2.772863 H        1 UNL1     0.0309
     119 H         3.513196   6.927022   -2.587416 H        1 UNL1     0.0309
     120 H         3.628534   6.011887   -4.074487 H        1 UNL1     0.0309
     121 H         2.107326   3.027218   3.225313 H        1 UNL1     0.0524
     122 H         0.501386   3.143188   2.494312 H        1 UNL1     0.0524
     123 H         1.787211   2.237722   1.657337 H        1 UNL1     0.0524
@<TRIPOS>BOND
     1     1     2    1
     2     1    42    1
     3     2     3    2
     4     3     4    1
     5     4     5    2
     6     5     7    1
     7     6    75    1
     8     6    76    1
     9     6    77    1
    10     7     9   am
    11     9    10    1
    12    10    11    2
    13    10    43    1
    14    11    14    1
    15    11    15    1
    16    12    13   ar
    17    12    27   ar
    18    12    43    1
    19    13    14    1
    20    13    30   ar
    21    14    17    2
    22    15    16    1
    23    16    17    1
    24    16    18    1
    25    16    22    1
    26    18    19    1
    27    19    20    1
    28    20    21    1
    29    21    22    1
    30    23    24    1
    31    23    88    1
    32    23    89    1
    33    24    25    1
    34    24    26    1
    35    24    90    1
    36    25    91    1
    37    25    92    1
    38    25    93    1
    39    26    94    1
    40    26    95    1
    41    26    96    1
    42    27    28   ar
    43    28    29   ar
    44    29    30   ar
    45    29    31    1
    46    30    33    1
    47    31    32    1
    48    32    33    1
    49    32    35    1
    50    34    97    1
    51    34    98    1
    52    34    99    1
    53    35    61    1
    54    36    37    1
    55    36    60    1
    56    37    38    1
    57    38    39    1
    58    39    40    1
    59    40    41    1
    60    41    42    1
    61    45   100    1
    62    47   101    1
    63    47   102    1
    64    47   103    1
    65    48   104    1
    66    49   105    1
    67    49   106    1
    68    49   107    1
    69    50   108    1
    70    51    59    1
    71    52   109    1
    72    52   110    1
    73    52   111    1
    74    53    54    1
    75    54    55    2
    76    54    56    1
    77    56   112    1
    78    56   113    1
    79    56   114    1
    80    57   115    1
    81    57   116    1
    82    57   117    1
    83    58   118    1
    84    58   119    1
    85    58   120    1
    86    59   121    1
    87    59   122    1
    88    59   123    1
    89    60    61    2
    90     1    47    1
    91     1    62    1
    92     2    63    1
    93     3    64    1
    94     4    65    1
    95     5     6    1
    96     7     8    2
    97     9    78    1
    98    15    79    1
    99    18    80    1
   100    18    81    1
   101    19    82    1
   102    19    83    1
   103    20    23    1
   104    21    84    1
   105    21    85    1
   106    22    86    1
   107    22    87    1
   108    27    45    1
   109    28    34    1
   110    32    58    1
   111    33    46    2
   112    36    51    1
   113    36    66    1
   114    37    52    1
   115    37    67    1
   116    38    53    1
   117    38    68    1
   118    42    48    1
   119    42    72    1
   120    43    44    2
   121    60    73    1
   122    61    74    1
   123    39    69    1
   124    39    57    1
   125    40    70    1
   126    40    50    1
   127    41    71    1
   128    41    49    1
