@<TRIPOS>MOLECULE
*****
 123 128 0 0 0
SMALL
GASTEIGER

@<TRIPOS>ATOM
     1 C         1.407411   -3.688938   -2.701953 C.3        1 UNL1     0.0009
     2 C         2.479822   -3.820053   -4.208533 C.2        1 UNL1     -0.0787
     3 C         2.639913   -4.132986   -5.612986 C.2        1 UNL1     -0.0649
     4 C         4.015565   -3.919322   -6.576462 C.2        1 UNL1     -0.0542
     5 C         4.496304   -3.79981   -7.903747 C.2        1 UNL1     0.0115
     6 C         4.104318   -3.944335   -9.400003 C.3        1 UNL1     -0.0348
     7 C         5.952573   -3.170358   -8.148814 C.2        1 UNL1     0.2441
     8 O         6.937738   -3.850535   -8.400478 O.2        1 UNL1     -0.2702
     9 N         5.970726   -1.774397   -8.313486 N.am        1 UNL1     -0.2772
     10 C         6.084652   -1.14839   -7.093462 C.2        1 UNL1     0.1049
     11 C         4.963209   -0.988024   -6.414588 C.2        1 UNL1     0.0801
     12 C         7.411516   -1.162581   -4.972951 C.ar        1 UNL1     0.0753
     13 C         6.158863   -1.199288   -4.281488 C.ar        1 UNL1     0.0305
     14 C         4.893441   -0.980245   -4.978466 C.2        1 UNL1     0.0924
     15 N         3.686916   -1.146989   -6.804889 N.pl3        1 UNL1     -0.3170
     16 C         2.840183   -0.68014   -5.739361 C.3        1 UNL1     0.1275
     17 N         3.66079   -0.881434   -4.488838 N.2        1 UNL1     -0.2557
     18 C         2.6901   0.828623   -5.909094 C.3        1 UNL1     0.0016
     19 C         2.156208   1.110315   -7.304514 C.3        1 UNL1     0.0026
     20 N         0.87502   0.435521   -7.460207 N.3        1 UNL1     -0.3018
     21 C         0.90666   -1.013928   -7.254134 C.3        1 UNL1     0.0026
     22 C         1.441628   -1.273831   -5.844824 C.3        1 UNL1     0.0016
     23 C         0.143653   0.877135   -8.630985 C.3        1 UNL1     0.0012
     24 C         0.945005   1.94158   -9.39685 C.3        1 UNL1     -0.0339
     25 C         0.05909   2.698916   -10.399672 C.3        1 UNL1     -0.0615
     26 C         1.619061   2.889036   -8.419735 C.3        1 UNL1     -0.0615
     27 C         8.618953   -1.251634   -4.284269 C.ar        1 UNL1     0.1347
     28 C         8.700939   -1.339808   -2.906026 C.ar        1 UNL1     0.0342
     29 C         7.454326   -1.423523   -2.250198 C.ar        1 UNL1     0.1435
     30 C         6.236753   -1.372015   -2.929965 C.ar        1 UNL1     0.0774
     31 O         7.364249   -1.402828   -0.902435 O.3        1 UNL1     -0.4436
     32 C         6.004032   -1.02938   -0.635571 C.3        1 UNL1     0.3143
     33 C         5.23582   -1.41224   -1.884363 C.2        1 UNL1     0.2504
     34 C         9.951241   -1.186151   -2.085516 C.3        1 UNL1     -0.0327
     35 O         5.53004   -1.873339   0.420989 O.2        1 UNL1     -0.4528
     36 C         2.94845   0.171922   2.307888 C.3        1 UNL1     0.0854
     37 C         1.632429   0.855386   1.770778 C.3        1 UNL1     0.0236
     38 C         0.290628   0.439053   2.544069 C.3        1 UNL1     0.1131
     39 C         -0.046394   -1.090777   2.76386 C.3        1 UNL1     0.0200
     40 C         0.163021   -2.188446   1.525431 C.3        1 UNL1     0.0661
     41 C         -0.411397   -2.017564   -0.061532 C.3        1 UNL1     0.0091
     42 C         0.291046   -2.605153   -1.651097 C.3        1 UNL1     0.0661
     43 C         7.384518   -0.936524   -6.439385 C.2        1 UNL1     0.2131
     44 O         8.330778   -0.50251   -7.071019 O.2        1 UNL1     -0.2851
     45 O         9.7919   -1.254157   -5.036351 O.3        1 UNL1     -0.5056
     46 O         4.065963   -1.706082   -1.988978 O.2        1 UNL1     -0.2836
     47 C         1.102998   -5.100567   -2.1322 C.3        1 UNL1     -0.0566
     48 O         -0.991396   -3.165237   -2.141776 O.3        1 UNL1     -0.3909
     49 C         -0.84205   -0.583207   -0.272841 C.3        1 UNL1     -0.0577
     50 O         1.48848   -2.678979   1.509321 O.3        1 UNL1     -0.3910
     51 O         2.767463   -0.840269   3.272329 O.3        1 UNL1     -0.3753
     52 C         1.67082   1.053409   0.22021 C.3        1 UNL1     -0.0564
     53 O         -0.871675   1.345141   2.260551 O.3        1 UNL1     -0.4608
     54 C         -0.809696   2.523672   1.564022 C.2        1 UNL1     0.3042
     55 O         -1.484733   3.535896   1.747232 O.2        1 UNL1     -0.2512
     56 C         0.257771   2.542225   0.507195 C.3        1 UNL1     0.0332
     57 C         0.482827   -1.497212   4.217445 C.3        1 UNL1     -0.0567
     58 C         5.992708   0.510671   -0.49541 C.3        1 UNL1     0.0210
     59 C         3.244327   -2.128395   2.886068 C.3        1 UNL1     0.0372
     60 C         3.838728   -0.391225   1.256493 C.2        1 UNL1     -0.0208
     61 C         4.475895   -1.561469   1.199129 C.2        1 UNL1     0.0882
     62 H         2.270589   -3.30588   -2.144367 H        1 UNL1     0.0365
     63 H         3.455705   -3.571874   -3.786005 H        1 UNL1     0.0576
     64 H         1.786867   -4.399889   -6.240827 H        1 UNL1     0.0615
     65 H         4.81488   -3.737714   -5.852862 H        1 UNL1     0.0622
     66 H         3.513928   0.990672   2.774717 H        1 UNL1     0.0645
     67 H         1.738566   1.912872   2.069137 H        1 UNL1     0.0362
     68 H         0.525318   0.832815   3.544766 H        1 UNL1     0.0741
     69 H         -1.100151   -1.18608   2.989518 H        1 UNL1     0.0359
     70 H         -0.439298   -3.031737   1.914188 H        1 UNL1     0.0600
     71 H         -1.390707   -2.526734   0.031503 H        1 UNL1     0.0348
     72 H         0.767298   -3.211098   -0.866667 H        1 UNL1     0.0602
     73 H         4.033595   0.355379   0.527207 H        1 UNL1     0.0628
     74 H         4.289837   -2.398575   1.872831 H        1 UNL1     0.1022
     75 H         4.018179   -2.940415   -9.881416 H        1 UNL1     0.0279
     76 H         4.820706   -4.451487   -10.042384 H        1 UNL1     0.0279
     77 H         3.086646   -4.338434   -9.536861 H        1 UNL1     0.0279
     78 H         5.09598   -1.468232   -8.734388 H        1 UNL1     0.1553
     79 H         3.395571   -1.159687   -7.76504 H        1 UNL1     0.1484
     80 H         2.011663   1.209616   -5.13622 H        1 UNL1     0.0317
     81 H         3.649426   1.336277   -5.762013 H        1 UNL1     0.0317
     82 H         2.866444   0.795809   -8.083335 H        1 UNL1     0.0428
     83 H         2.058506   2.191722   -7.404834 H        1 UNL1     0.0428
     84 H         -0.080325   -1.484839   -7.297884 H        1 UNL1     0.0428
     85 H         1.481509   -1.525842   -8.038231 H        1 UNL1     0.0428
     86 H         1.325962   -2.329227   -5.681278 H        1 UNL1     0.0317
     87 H         0.770833   -0.826732   -5.101027 H        1 UNL1     0.0317
     88 H         -0.003825   0.010456   -9.288566 H        1 UNL1     0.0429
     89 H         -0.853029   1.249664   -8.3615 H        1 UNL1     0.0429
     90 H         1.756813   1.452382   -9.94809 H        1 UNL1     0.0308
     91 H         -0.170797   2.081134   -11.272942 H        1 UNL1     0.0233
     92 H         -0.874411   3.015246   -9.928376 H        1 UNL1     0.0233
     93 H         0.537854   3.612198   -10.773219 H        1 UNL1     0.0233
     94 H         1.920456   2.348196   -7.516137 H        1 UNL1     0.0233
     95 H         2.518244   3.315681   -8.872953 H        1 UNL1     0.0233
     96 H         0.95028   3.703645   -8.127994 H        1 UNL1     0.0233
     97 H         9.787372   -1.438257   -1.042051 H        1 UNL1     0.0280
     98 H         10.756976   -1.846791   -2.431351 H        1 UNL1     0.0280
     99 H         10.30109   -0.142144   -2.137958 H        1 UNL1     0.0280
     100 H         10.516431   -0.808998   -4.633225 H        1 UNL1     0.2922
     101 H         0.227413   -5.516935   -2.629839 H        1 UNL1     0.0236
     102 H         1.001117   -5.112212   -1.047549 H        1 UNL1     0.0236
     103 H         1.913584   -5.817102   -2.34602 H        1 UNL1     0.0236
     104 H         -0.899561   -3.314172   -3.10321 H        1 UNL1     0.2098
     105 H         -1.097823   -0.337845   -1.300552 H        1 UNL1     0.0234
     106 H         -1.623772   -0.238082   0.403714 H        1 UNL1     0.0234
     107 H         0.0   0.0   0.0 H        1 UNL1     0.0234
     108 H         1.94166   -2.316126   2.294645 H        1 UNL1     0.2098
     109 H         0.909279   0.451472   -0.294999 H        1 UNL1     0.0234
     110 H         1.57554   2.101821   -0.082278 H        1 UNL1     0.0234
     111 H         2.63415   0.740439   -0.204042 H        1 UNL1     0.0234
     112 H         0.426658   1.528673   0.130983 H        1 UNL1     0.0342
     113 H         0.017391   3.225729   -0.305752 H        1 UNL1     0.0342
     114 H         1.191988   2.88998   0.969225 H        1 UNL1     0.0342
     115 H         1.31095   -0.853813   4.545222 H        1 UNL1     0.0234
     116 H         -0.284183   -1.466251   4.993839 H        1 UNL1     0.0234
     117 H         0.960062   -2.491773   4.249658 H        1 UNL1     0.0234
     118 H         6.175494   0.833702   0.54442 H        1 UNL1     0.0309
     119 H         6.710192   1.007496   -1.156155 H        1 UNL1     0.0309
     120 H         5.01479   0.946669   -0.727121 H        1 UNL1     0.0309
     121 H         3.610751   -2.62691   3.783048 H        1 UNL1     0.0524
     122 H         2.447012   -2.758681   2.458207 H        1 UNL1     0.0524
     123 H         4.044834   -2.030142   2.158312 H        1 UNL1     0.0524
@<TRIPOS>BOND
     1     1     2    1
     2     1    42    1
     3     2     3    2
     4     3     4    1
     5     4     5    2
     6     5     7    1
     7     6    75    1
     8     6    76    1
     9     6    77    1
    10     7     9   am
    11     9    10    1
    12    10    11    2
    13    10    43    1
    14    11    14    1
    15    11    15    1
    16    12    13   ar
    17    12    27   ar
    18    12    43    1
    19    13    14    1
    20    13    30   ar
    21    14    17    2
    22    15    16    1
    23    16    17    1
    24    16    18    1
    25    16    22    1
    26    18    19    1
    27    19    20    1
    28    20    21    1
    29    21    22    1
    30    23    24    1
    31    23    88    1
    32    23    89    1
    33    24    25    1
    34    24    26    1
    35    24    90    1
    36    25    91    1
    37    25    92    1
    38    25    93    1
    39    26    94    1
    40    26    95    1
    41    26    96    1
    42    27    28   ar
    43    28    29   ar
    44    29    30   ar
    45    29    31    1
    46    30    33    1
    47    31    32    1
    48    32    33    1
    49    32    35    1
    50    34    97    1
    51    34    98    1
    52    34    99    1
    53    35    61    1
    54    36    37    1
    55    36    60    1
    56    37    38    1
    57    38    39    1
    58    39    40    1
    59    40    41    1
    60    41    42    1
    61    45   100    1
    62    47   101    1
    63    47   102    1
    64    47   103    1
    65    48   104    1
    66    49   105    1
    67    49   106    1
    68    49   107    1
    69    50   108    1
    70    51    59    1
    71    52   109    1
    72    52   110    1
    73    52   111    1
    74    53    54    1
    75    54    55    2
    76    54    56    1
    77    56   112    1
    78    56   113    1
    79    56   114    1
    80    57   115    1
    81    57   116    1
    82    57   117    1
    83    58   118    1
    84    58   119    1
    85    58   120    1
    86    59   121    1
    87    59   122    1
    88    59   123    1
    89    60    61    2
    90     1    47    1
    91     1    62    1
    92     2    63    1
    93     3    64    1
    94     4    65    1
    95     5     6    1
    96     7     8    2
    97     9    78    1
    98    15    79    1
    99    18    80    1
   100    18    81    1
   101    19    82    1
   102    19    83    1
   103    20    23    1
   104    21    84    1
   105    21    85    1
   106    22    86    1
   107    22    87    1
   108    27    45    1
   109    28    34    1
   110    32    58    1
   111    33    46    2
   112    36    51    1
   113    36    66    1
   114    37    52    1
   115    37    67    1
   116    38    53    1
   117    38    68    1
   118    42    48    1
   119    42    72    1
   120    43    44    2
   121    60    73    1
   122    61    74    1
   123    39    69    1
   124    39    57    1
   125    40    70    1
   126    40    50    1
   127    41    71    1
   128    41    49    1
