@<TRIPOS>MOLECULE
*****
 123 128 0 0 0
SMALL
GASTEIGER

@<TRIPOS>ATOM
     1 C         0.510351   0.158111   -4.161758 C.3        1 UNL1     0.0009
     2 C         -0.156312   -1.025587   -5.423288 C.2        1 UNL1     -0.0787
     3 C         0.043662   -2.127083   -6.341309 C.2        1 UNL1     -0.0649
     4 C         -1.123956   -2.947507   -7.252315 C.2        1 UNL1     -0.0542
     5 C         -1.417742   -4.138693   -7.960725 C.2        1 UNL1     0.0115
     6 C         -0.803582   -5.449874   -8.523695 C.3        1 UNL1     -0.0348
     7 C         -2.949773   -4.49211   -8.284707 C.2        1 UNL1     0.2441
     8 O         -3.453136   -4.322379   -9.386679 O.2        1 UNL1     -0.2702
     9 N         -3.601074   -5.250239   -7.296173 N.am        1 UNL1     -0.2772
     10 C         -4.162157   -4.424229   -6.349485 C.2        1 UNL1     0.1049
     11 C         -3.353431   -3.997455   -5.39657 C.2        1 UNL1     0.0801
     12 C         -5.601375   -2.394758   -6.09019 C.ar        1 UNL1     0.0753
     13 C         -4.587157   -1.883002   -5.219514 C.ar        1 UNL1     0.0305
     14 C         -3.492595   -2.724917   -4.74185 C.2        1 UNL1     0.0924
     15 N         -2.113137   -4.400562   -5.07145 N.pl3        1 UNL1     -0.3170
     16 C         -1.741072   -3.736221   -3.850601 C.3        1 UNL1     0.1275
     17 N         -2.532096   -2.450983   -3.863597 N.2        1 UNL1     -0.2557
     18 C         -2.29827   -4.564771   -2.697025 C.3        1 UNL1     0.0016
     19 C         -1.775149   -5.986807   -2.822516 C.3        1 UNL1     0.0026
     20 N         -0.319518   -5.954396   -2.789112 N.3        1 UNL1     -0.3018
     21 C         0.307953   -5.130959   -3.824776 C.3        1 UNL1     0.0026
     22 C         -0.228273   -3.705977   -3.677186 C.3        1 UNL1     0.0016
     23 C         0.269577   -7.265215   -2.601052 C.3        1 UNL1     0.0012
     24 C         0.009561   -7.772878   -1.174018 C.3        1 UNL1     -0.0339
     25 C         1.184431   -8.618079   -0.655008 C.3        1 UNL1     -0.0615
     26 C         -0.288396   -6.603682   -0.251532 C.3        1 UNL1     -0.0615
     27 C         -6.705553   -1.622963   -6.444083 C.ar        1 UNL1     0.1347
     28 C         -6.923801   -0.345225   -5.960551 C.ar        1 UNL1     0.0342
     29 C         -5.887817   0.155925   -5.144003 C.ar        1 UNL1     0.1435
     30 C         -4.758328   -0.592411   -4.810135 C.ar        1 UNL1     0.0774
     31 O         -6.003297   1.341893   -4.507487 O.3        1 UNL1     -0.4436
     32 C         -5.030655   1.28387   -3.453223 C.3        1 UNL1     0.3143
     33 C         -4.010177   0.261717   -3.911524 C.2        1 UNL1     0.2504
     34 C         -8.197746   0.441945   -6.092933 C.3        1 UNL1     -0.0327
     35 O         -4.364275   2.551925   -3.418182 O.2        1 UNL1     -0.4528
     36 C         -3.336902   3.088085   0.196389 C.3        1 UNL1     0.0854
     37 C         -2.43901   2.180161   1.122125 C.3        1 UNL1     0.0236
     38 C         -1.179364   2.922977   1.780349 C.3        1 UNL1     0.1131
     39 C         -0.19467   3.758056   0.866407 C.3        1 UNL1     0.0200
     40 C         0.309525   3.154146   -0.604484 C.3        1 UNL1     0.0661
     41 C         0.946365   1.605722   -0.877296 C.3        1 UNL1     0.0091
     42 C         0.828554   0.512264   -2.345586 C.3        1 UNL1     0.0661
     43 C         -5.483977   -3.806444   -6.532481 C.2        1 UNL1     0.2131
     44 O         -6.426687   -4.469008   -6.926237 O.2        1 UNL1     -0.2851
     45 O         -7.623548   -2.179405   -7.332394 O.3        1 UNL1     -0.5056
     46 O         -2.838091   0.183357   -3.618389 O.2        1 UNL1     -0.2836
     47 C         1.363088   1.257063   -4.851053 C.3        1 UNL1     -0.0566
     48 O         2.276994   0.194986   -2.367336 O.3        1 UNL1     -0.3909
     49 C         0.674379   0.745381   0.336512 C.3        1 UNL1     -0.0577
     50 O         -0.611917   3.484157   -1.624171 O.3        1 UNL1     -0.3910
     51 O         -2.833927   4.376241   -0.077657 O.3        1 UNL1     -0.3753
     52 C         -2.353871   0.712   0.590895 C.3        1 UNL1     -0.0564
     53 O         -0.555   2.1588   2.91107 O.3        1 UNL1     -0.4608
     54 C         0.711933   2.351009   3.396731 C.2        1 UNL1     0.3042
     55 O         1.709172   1.665661   3.173906 O.2        1 UNL1     -0.2512
     56 C         0.850168   3.582683   4.245602 C.3        1 UNL1     0.0332
     57 C         -0.662871   5.286352   0.923641 C.3        1 UNL1     -0.0567
     58 C         -5.765854   0.731894   -2.209706 C.3        1 UNL1     0.0210
     59 C         -2.973849   4.798425   -1.433403 C.3        1 UNL1     0.0372
     60 C         -3.703448   2.482881   -1.113013 C.2        1 UNL1     -0.0208
     61 C         -3.699165   3.007409   -2.339225 C.2        1 UNL1     0.0882
     62 H         -0.498492   0.572037   -4.045087 H        1 UNL1     0.0365
     63 H         -1.181318   -0.662109   -5.521859 H        1 UNL1     0.0576
     64 H         0.998528   -2.653766   -6.4041 H        1 UNL1     0.0615
     65 H         -2.004892   -2.303081   -7.187902 H        1 UNL1     0.0622
     66 H         -4.279323   3.200696   0.750653 H        1 UNL1     0.0645
     67 H         -3.070715   1.992766   2.007784 H        1 UNL1     0.0362
     68 H         -1.706221   3.666795   2.397341 H        1 UNL1     0.0741
     69 H         0.737537   3.898845   1.397045 H        1 UNL1     0.0359
     70 H         1.178673   3.812931   -0.793281 H        1 UNL1     0.0600
     71 H         2.02691   1.816984   -0.755859 H        1 UNL1     0.0348
     72 H         0.592002   1.525294   -2.702137 H        1 UNL1     0.0602
     73 H         -4.125472   1.522706   -0.948062 H        1 UNL1     0.0628
     74 H         -3.234562   3.958523   -2.601452 H        1 UNL1     0.1022
     75 H         0.141022   -5.233601   -9.078658 H        1 UNL1     0.0279
     76 H         -0.481887   -6.187969   -7.792397 H        1 UNL1     0.0279
     77 H         -1.420117   -5.903365   -9.313588 H        1 UNL1     0.0279
     78 H         -2.925701   -5.845767   -6.82152 H        1 UNL1     0.1553
     79 H         -1.722075   -5.280964   -5.352335 H        1 UNL1     0.1484
     80 H         -1.992372   -4.107751   -1.74817 H        1 UNL1     0.0317
     81 H         -3.393507   -4.562841   -2.707148 H        1 UNL1     0.0317
     82 H         -2.13928   -6.475229   -3.738357 H        1 UNL1     0.0428
     83 H         -2.186037   -6.560651   -1.991297 H        1 UNL1     0.0428
     84 H         1.395848   -5.059416   -3.728978 H        1 UNL1     0.0428
     85 H         0.155554   -5.550617   -4.828757 H        1 UNL1     0.0428
     86 H         0.347617   -3.107853   -4.358791 H        1 UNL1     0.0317
     87 H         0.043781   -3.303205   -2.693897 H        1 UNL1     0.0317
     88 H         -0.20372   -7.957237   -3.309848 H        1 UNL1     0.0429
     89 H         1.343303   -7.25623   -2.828657 H        1 UNL1     0.0429
     90 H         -0.894412   -8.393398   -1.172663 H        1 UNL1     0.0308
     91 H         2.14386   -8.133555   -0.859546 H        1 UNL1     0.0233
     92 H         1.091433   -8.79002   0.419886 H        1 UNL1     0.0233
     93 H         1.223249   -9.610075   -1.121132 H        1 UNL1     0.0233
     94 H         -0.092631   -6.884174   0.789062 H        1 UNL1     0.0233
     95 H         0.358306   -5.757503   -0.499968 H        1 UNL1     0.0233
     96 H         -1.331787   -6.286531   -0.333511 H        1 UNL1     0.0233
     97 H         -8.991031   -0.140849   -6.551497 H        1 UNL1     0.0280
     98 H         -8.587256   0.765721   -5.118917 H        1 UNL1     0.0280
     99 H         -8.018101   1.332506   -6.717213 H        1 UNL1     0.0280
     100 H         -7.241287   -2.557152   -8.104926 H        1 UNL1     0.2922
     101 H         0.800619   2.189761   -4.887922 H        1 UNL1     0.0236
     102 H         1.730056   0.961659   -5.833425 H        1 UNL1     0.0236
     103 H         2.270576   1.500163   -4.273505 H        1 UNL1     0.0236
     104 H         2.718882   0.871382   -2.917058 H        1 UNL1     0.2098
     105 H         1.551713   0.243861   0.73723 H        1 UNL1     0.0234
     106 H         0.127054   1.245243   1.135574 H        1 UNL1     0.0234
     107 H         -0.0   0.0   0.0 H        1 UNL1     0.0234
     108 H         -1.149355   4.2318   -1.298659 H        1 UNL1     0.2098
     109 H         -3.160562   0.0791   0.986368 H        1 UNL1     0.0234
     110 H         -2.342115   0.649966   -0.502612 H        1 UNL1     0.0234
     111 H         -1.41777   0.225127   0.895223 H        1 UNL1     0.0234
     112 H         1.885885   3.688147   4.582519 H        1 UNL1     0.0342
     113 H         0.515547   4.478628   3.724876 H        1 UNL1     0.0342
     114 H         0.217536   3.458943   5.135338 H        1 UNL1     0.0342
     115 H         -0.761793   5.644738   1.957547 H        1 UNL1     0.0234
     116 H         0.00338   5.974682   0.399846 H        1 UNL1     0.0234
     117 H         -1.68631   5.447444   0.543427 H        1 UNL1     0.0234
     118 H         -5.280637   1.044451   -1.268495 H        1 UNL1     0.0309
     119 H         -6.823823   1.01089   -2.177071 H        1 UNL1     0.0309
     120 H         -5.738944   -0.36198   -2.156591 H        1 UNL1     0.0309
     121 H         -2.192607   5.531415   -1.632757 H        1 UNL1     0.0524
     122 H         -2.839479   3.967841   -2.146223 H        1 UNL1     0.0524
     123 H         -3.952967   5.242268   -1.589694 H        1 UNL1     0.0524
@<TRIPOS>BOND
     1     1     2    1
     2     1    42    1
     3     2     3    2
     4     3     4    1
     5     4     5    2
     6     5     7    1
     7     6    75    1
     8     6    76    1
     9     6    77    1
    10     7     9   am
    11     9    10    1
    12    10    11    2
    13    10    43    1
    14    11    14    1
    15    11    15    1
    16    12    13   ar
    17    12    27   ar
    18    12    43    1
    19    13    14    1
    20    13    30   ar
    21    14    17    2
    22    15    16    1
    23    16    17    1
    24    16    18    1
    25    16    22    1
    26    18    19    1
    27    19    20    1
    28    20    21    1
    29    21    22    1
    30    23    24    1
    31    23    88    1
    32    23    89    1
    33    24    25    1
    34    24    26    1
    35    24    90    1
    36    25    91    1
    37    25    92    1
    38    25    93    1
    39    26    94    1
    40    26    95    1
    41    26    96    1
    42    27    28   ar
    43    28    29   ar
    44    29    30   ar
    45    29    31    1
    46    30    33    1
    47    31    32    1
    48    32    33    1
    49    32    35    1
    50    34    97    1
    51    34    98    1
    52    34    99    1
    53    35    61    1
    54    36    37    1
    55    36    60    1
    56    37    38    1
    57    38    39    1
    58    39    40    1
    59    40    41    1
    60    41    42    1
    61    45   100    1
    62    47   101    1
    63    47   102    1
    64    47   103    1
    65    48   104    1
    66    49   105    1
    67    49   106    1
    68    49   107    1
    69    50   108    1
    70    51    59    1
    71    52   109    1
    72    52   110    1
    73    52   111    1
    74    53    54    1
    75    54    55    2
    76    54    56    1
    77    56   112    1
    78    56   113    1
    79    56   114    1
    80    57   115    1
    81    57   116    1
    82    57   117    1
    83    58   118    1
    84    58   119    1
    85    58   120    1
    86    59   121    1
    87    59   122    1
    88    59   123    1
    89    60    61    2
    90     1    47    1
    91     1    62    1
    92     2    63    1
    93     3    64    1
    94     4    65    1
    95     5     6    1
    96     7     8    2
    97     9    78    1
    98    15    79    1
    99    18    80    1
   100    18    81    1
   101    19    82    1
   102    19    83    1
   103    20    23    1
   104    21    84    1
   105    21    85    1
   106    22    86    1
   107    22    87    1
   108    27    45    1
   109    28    34    1
   110    32    58    1
   111    33    46    2
   112    36    51    1
   113    36    66    1
   114    37    52    1
   115    37    67    1
   116    38    53    1
   117    38    68    1
   118    42    48    1
   119    42    72    1
   120    43    44    2
   121    60    73    1
   122    61    74    1
   123    39    69    1
   124    39    57    1
   125    40    70    1
   126    40    50    1
   127    41    71    1
   128    41    49    1
