@<TRIPOS>MOLECULE
*****
 123 128 0 0 0
SMALL
GASTEIGER

@<TRIPOS>ATOM
     1 C         1.382125   -1.073983   -3.860997 C.3        1 UNL1     0.0009
     2 C         0.487409   -2.063944   -5.148046 C.2        1 UNL1     -0.0787
     3 C         0.301063   -3.301512   -5.875883 C.2        1 UNL1     -0.0649
     4 C         -0.911255   -3.677339   -6.996329 C.2        1 UNL1     -0.0542
     5 C         -1.602507   -4.726569   -7.650824 C.2        1 UNL1     0.0115
     6 C         -1.609828   -6.258812   -7.906755 C.3        1 UNL1     -0.0348
     7 C         -3.012623   -4.410463   -8.34985 C.2        1 UNL1     0.2441
     8 O         -3.138827   -4.265936   -9.558035 O.2        1 UNL1     -0.2702
     9 N         -4.132498   -4.569039   -7.515053 N.am        1 UNL1     -0.2772
     10 C         -4.39327   -3.401899   -6.834536 C.2        1 UNL1     0.1049
     11 C         -3.686559   -3.197308   -5.737758 C.2        1 UNL1     0.0801
     12 C         -4.675699   -0.937627   -7.158475 C.ar        1 UNL1     0.0753
     13 C         -3.736558   -0.769012   -6.091614 C.ar        1 UNL1     0.0305
     14 C         -3.312748   -1.893544   -5.260432 C.2        1 UNL1     0.0924
     15 N         -2.894241   -4.038401   -5.051227 N.pl3        1 UNL1     -0.3170
     16 C         -2.495561   -3.374979   -3.838305 C.3        1 UNL1     0.1275
     17 N         -2.536972   -1.90558   -4.180175 N.2        1 UNL1     -0.2557
     18 C         -3.602624   -3.602697   -2.813485 C.3        1 UNL1     0.0016
     19 C         -3.82822   -5.098973   -2.665648 C.3        1 UNL1     0.0026
     20 N         -2.582267   -5.71985   -2.237699 N.3        1 UNL1     -0.3018
     21 C         -1.441377   -5.503667   -3.12989 C.3        1 UNL1     0.0026
     22 C         -1.229859   -3.994323   -3.26041 C.3        1 UNL1     0.0016
     23 C         -2.759634   -7.083974   -1.781244 C.3        1 UNL1     0.0012
     24 C         -2.680765   -8.062219   -2.963856 C.3        1 UNL1     -0.0339
     25 C         -3.61831   -9.264173   -2.762925 C.3        1 UNL1     -0.0615
     26 C         -2.976727   -7.33349   -4.263141 C.3        1 UNL1     -0.0615
     27 C         -5.16649   0.156164   -7.867603 C.ar        1 UNL1     0.1347
     28 C         -4.823383   1.464407   -7.576352 C.ar        1 UNL1     0.0342
     29 C         -3.860199   1.602728   -6.554438 C.ar        1 UNL1     0.1435
     30 C         -3.332469   0.51372   -5.859611 C.ar        1 UNL1     0.0774
     31 O         -3.504963   2.81688   -6.080466 O.3        1 UNL1     -0.4436
     32 C         -2.915996   2.5479   -4.799201 C.3        1 UNL1     0.3143
     33 C         -2.457611   1.105251   -4.868914 C.2        1 UNL1     0.2504
     34 C         -5.494823   2.694211   -8.121192 C.3        1 UNL1     -0.0327
     35 O         -1.737087   3.355622   -4.694274 O.2        1 UNL1     -0.4528
     36 C         -1.318952   4.111302   -0.998033 C.3        1 UNL1     0.0854
     37 C         -1.183347   3.111475   0.214189 C.3        1 UNL1     0.0236
     38 C         0.11936   3.325785   1.124556 C.3        1 UNL1     0.1131
     39 C         1.545307   3.41646   0.445789 C.3        1 UNL1     0.0200
     40 C         1.970232   2.358506   -0.771836 C.3        1 UNL1     0.0661
     41 C         1.808704   0.670573   -0.722855 C.3        1 UNL1     0.0091
     42 C         1.465406   -0.531482   -2.06547 C.3        1 UNL1     0.0661
     43 C         -5.178126   -2.308101   -7.426112 C.2        1 UNL1     0.2131
     44 O         -6.224783   -2.540461   -8.003396 O.2        1 UNL1     -0.2851
     45 O         -6.042216   -0.098277   -8.921074 O.3        1 UNL1     -0.5056
     46 O         -1.558201   0.570124   -4.260182 O.2        1 UNL1     -0.2836
     47 C         2.780362   -0.647975   -4.383903 C.3        1 UNL1     -0.0566
     48 O         2.545296   -1.464156   -1.661648 O.3        1 UNL1     -0.3909
     49 C         0.916483   0.299282   0.440579 C.3        1 UNL1     -0.0577
     50 O         1.550829   2.847715   -2.02981 O.3        1 UNL1     -0.3910
     51 O         -0.207761   4.945699   -1.235659 O.3        1 UNL1     -0.3753
     52 C         -1.723145   1.687983   -0.142513 C.3        1 UNL1     -0.0564
     53 O         0.052169   2.616718   2.445554 O.3        1 UNL1     -0.4608
     54 C         0.72815   2.983072   3.57991 C.2        1 UNL1     0.3042
     55 O         0.247072   3.284873   4.671385 O.2        1 UNL1     -0.2512
     56 C         2.222266   2.939757   3.430055 C.3        1 UNL1     0.0332
     57 C         1.883026   4.965999   0.238309 C.3        1 UNL1     -0.0567
     58 C         -4.056971   2.659217   -3.761263 C.3        1 UNL1     0.0210
     59 C         -0.402205   6.316066   -0.889031 C.3        1 UNL1     0.0372
     60 C         -1.666484   3.478273   -2.299438 C.2        1 UNL1     -0.0208
     61 C         -1.163358   3.676119   -3.518645 C.2        1 UNL1     0.0882
     62 H         0.704135   -0.235735   -4.061948 H        1 UNL1     0.0365
     63 H         -0.186285   -1.307059   -5.555147 H        1 UNL1     0.0576
     64 H         0.867406   -4.202084   -5.628228 H        1 UNL1     0.0615
     65 H         -1.357567   -2.707539   -7.2325 H        1 UNL1     0.0622
     66 H         -2.174532   4.749254   -0.735267 H        1 UNL1     0.0645
     67 H         -1.987261   3.418049   0.905777 H        1 UNL1     0.0362
     68 H         -0.087121   4.33745   1.505897 H        1 UNL1     0.0741
     69 H         2.300909   3.229157   1.197049 H        1 UNL1     0.0359
     70 H         3.06806   2.499336   -0.772304 H        1 UNL1     0.0600
     71 H         2.805922   0.392321   -0.32904 H        1 UNL1     0.0348
     72 H         1.830187   0.380166   -2.560595 H        1 UNL1     0.0602
     73 H         -2.526983   2.869361   -2.172881 H        1 UNL1     0.0628
     74 H         -0.251821   4.237706   -3.725908 H        1 UNL1     0.1022
     75 H         -0.829636   -6.534754   -8.656549 H        1 UNL1     0.0279
     76 H         -1.356186   -6.893243   -7.06045 H        1 UNL1     0.0279
     77 H         -2.525508   -6.601445   -8.410575 H        1 UNL1     0.0279
     78 H         -3.943837   -5.29142   -6.823207 H        1 UNL1     0.1553
     79 H         -2.936531   -5.037388   -5.135894 H        1 UNL1     0.1484
     80 H         -3.307541   -3.146103   -1.861007 H        1 UNL1     0.0317
     81 H         -4.530213   -3.109569   -3.123411 H        1 UNL1     0.0317
     82 H         -4.194671   -5.549703   -3.599708 H        1 UNL1     0.0428
     83 H         -4.62258   -5.238707   -1.931811 H        1 UNL1     0.0428
     84 H         -0.501111   -5.911855   -2.746364 H        1 UNL1     0.0428
     85 H         -1.576854   -6.008491   -4.096386 H        1 UNL1     0.0428
     86 H         -0.313111   -3.876692   -3.807881 H        1 UNL1     0.0317
     87 H         -0.996869   -3.562389   -2.279469 H        1 UNL1     0.0317
     88 H         -1.948128   -7.317614   -1.079699 H        1 UNL1     0.0429
     89 H         -3.702946   -7.201369   -1.232467 H        1 UNL1     0.0429
     90 H         -1.652873   -8.43266   -3.05564 H        1 UNL1     0.0308
     91 H         -4.609514   -8.943846   -2.42825 H        1 UNL1     0.0233
     92 H         -3.719495   -9.834275   -3.689399 H        1 UNL1     0.0233
     93 H         -3.24049   -9.967387   -2.010877 H        1 UNL1     0.0233
     94 H         -3.303029   -8.04499   -5.029386 H        1 UNL1     0.0233
     95 H         -3.782095   -6.609593   -4.110441 H        1 UNL1     0.0233
     96 H         -2.093799   -6.806041   -4.634899 H        1 UNL1     0.0233
     97 H         -4.867541   3.575788   -8.028625 H        1 UNL1     0.0280
     98 H         -5.725519   2.600443   -9.190417 H        1 UNL1     0.0280
     99 H         -6.432011   2.877592   -7.570606 H        1 UNL1     0.0280
     100 H         -6.948945   -0.145847   -8.673681 H        1 UNL1     0.2922
     101 H         3.42533   -0.393174   -3.543219 H        1 UNL1     0.0236
     102 H         2.736391   0.151565   -5.122676 H        1 UNL1     0.0236
     103 H         3.300816   -1.474857   -4.89536 H        1 UNL1     0.0236
     104 H         2.79894   -1.242291   -0.744364 H        1 UNL1     0.2098
     105 H         1.283172   -0.529353   1.041174 H        1 UNL1     0.0234
     106 H         0.632983   1.133994   1.081524 H        1 UNL1     0.0234
     107 H         -0.0   0.0   0.0 H        1 UNL1     0.0234
     108 H         1.854027   2.210279   -2.704728 H        1 UNL1     0.2098
     109 H         -2.584227   1.402188   0.477626 H        1 UNL1     0.0234
     110 H         -1.981678   1.578554   -1.201252 H        1 UNL1     0.0234
     111 H         -0.964021   0.912916   0.027627 H        1 UNL1     0.0234
     112 H         2.676858   3.759279   3.994923 H        1 UNL1     0.0342
     113 H         2.636586   1.979371   3.73311 H        1 UNL1     0.0342
     114 H         2.465042   3.086999   2.368667 H        1 UNL1     0.0342
     115 H         2.956225   5.169502   0.356708 H        1 UNL1     0.0234
     116 H         1.579295   5.360316   -0.733447 H        1 UNL1     0.0234
     117 H         1.455094   5.617907   1.019227 H        1 UNL1     0.0234
     118 H         -3.943036   3.545949   -3.113396 H        1 UNL1     0.0309
     119 H         -5.052211   2.673959   -4.216766 H        1 UNL1     0.0309
     120 H         -4.061219   1.825817   -3.050255 H        1 UNL1     0.0309
     121 H         -0.042552   6.452496   0.130476 H        1 UNL1     0.0524
     122 H         0.172921   6.997409   -1.537906 H        1 UNL1     0.0524
     123 H         -1.45554   6.574019   -0.952587 H        1 UNL1     0.0524
@<TRIPOS>BOND
     1     1     2    1
     2     1    42    1
     3     2     3    2
     4     3     4    1
     5     4     5    2
     6     5     7    1
     7     6    75    1
     8     6    76    1
     9     6    77    1
    10     7     9   am
    11     9    10    1
    12    10    11    2
    13    10    43    1
    14    11    14    1
    15    11    15    1
    16    12    13   ar
    17    12    27   ar
    18    12    43    1
    19    13    14    1
    20    13    30   ar
    21    14    17    2
    22    15    16    1
    23    16    17    1
    24    16    18    1
    25    16    22    1
    26    18    19    1
    27    19    20    1
    28    20    21    1
    29    21    22    1
    30    23    24    1
    31    23    88    1
    32    23    89    1
    33    24    25    1
    34    24    26    1
    35    24    90    1
    36    25    91    1
    37    25    92    1
    38    25    93    1
    39    26    94    1
    40    26    95    1
    41    26    96    1
    42    27    28   ar
    43    28    29   ar
    44    29    30   ar
    45    29    31    1
    46    30    33    1
    47    31    32    1
    48    32    33    1
    49    32    35    1
    50    34    97    1
    51    34    98    1
    52    34    99    1
    53    35    61    1
    54    36    37    1
    55    36    60    1
    56    37    38    1
    57    38    39    1
    58    39    40    1
    59    40    41    1
    60    41    42    1
    61    45   100    1
    62    47   101    1
    63    47   102    1
    64    47   103    1
    65    48   104    1
    66    49   105    1
    67    49   106    1
    68    49   107    1
    69    50   108    1
    70    51    59    1
    71    52   109    1
    72    52   110    1
    73    52   111    1
    74    53    54    1
    75    54    55    2
    76    54    56    1
    77    56   112    1
    78    56   113    1
    79    56   114    1
    80    57   115    1
    81    57   116    1
    82    57   117    1
    83    58   118    1
    84    58   119    1
    85    58   120    1
    86    59   121    1
    87    59   122    1
    88    59   123    1
    89    60    61    2
    90     1    47    1
    91     1    62    1
    92     2    63    1
    93     3    64    1
    94     4    65    1
    95     5     6    1
    96     7     8    2
    97     9    78    1
    98    15    79    1
    99    18    80    1
   100    18    81    1
   101    19    82    1
   102    19    83    1
   103    20    23    1
   104    21    84    1
   105    21    85    1
   106    22    86    1
   107    22    87    1
   108    27    45    1
   109    28    34    1
   110    32    58    1
   111    33    46    2
   112    36    51    1
   113    36    66    1
   114    37    52    1
   115    37    67    1
   116    38    53    1
   117    38    68    1
   118    42    48    1
   119    42    72    1
   120    43    44    2
   121    60    73    1
   122    61    74    1
   123    39    69    1
   124    39    57    1
   125    40    70    1
   126    40    50    1
   127    41    71    1
   128    41    49    1
