@<TRIPOS>MOLECULE
*****
 123 128 0 0 0
SMALL
GASTEIGER

@<TRIPOS>ATOM
     1 C         5.05696   2.019699   0.599772 C.3        1 UNL1     0.0009
     2 C         6.443908   2.948022   -0.207462 C.2        1 UNL1     -0.0787
     3 C         7.734575   2.957855   -0.863304 C.2        1 UNL1     -0.0649
     4 C         8.534503   4.27394   -1.566435 C.2        1 UNL1     -0.0542
     5 C         9.540239   4.666027   -2.483954 C.2        1 UNL1     0.0115
     6 C         10.713866   4.147088   -3.359524 C.3        1 UNL1     -0.0348
     7 C         9.542273   6.172945   -3.037292 C.2        1 UNL1     0.2441
     8 O         10.307257   7.032943   -2.622893 O.2        1 UNL1     -0.2702
     9 N         8.789105   6.37169   -4.207501 N.am        1 UNL1     -0.2772
     10 C         7.481304   6.661993   -3.893331 C.2        1 UNL1     0.1049
     11 C         6.699166   5.627429   -3.644017 C.2        1 UNL1     0.0801
     12 C         6.068964   8.12888   -2.440448 C.ar        1 UNL1     0.0753
     13 C         5.382478   6.938415   -2.040275 C.ar        1 UNL1     0.0305
     14 C         5.590211   5.666945   -2.729668 C.2        1 UNL1     0.0924
     15 N         6.910353   4.315849   -3.848189 N.pl3        1 UNL1     -0.3170
     16 C         5.680366   3.623877   -3.567904 C.3        1 UNL1     0.1275
     17 N         4.974829   4.499896   -2.561657 N.2        1 UNL1     -0.2557
     18 C         4.835266   3.671707   -4.837242 C.3        1 UNL1     0.0016
     19 C         5.642297   3.07913   -5.98142 C.3        1 UNL1     0.0026
     20 N         5.99971   1.708889   -5.641238 N.3        1 UNL1     -0.3018
     21 C         6.762383   1.555011   -4.400666 C.3        1 UNL1     0.0026
     22 C         5.931175   2.152703   -3.264113 C.3        1 UNL1     0.0016
     23 C         6.505833   0.960207   -6.774357 C.3        1 UNL1     0.0012
     24 C         5.376968   0.670497   -7.776099 C.3        1 UNL1     -0.0339
     25 C         5.578934   1.443251   -9.089917 C.3        1 UNL1     -0.0615
     26 C         5.266726   -0.824808   -8.018356 C.3        1 UNL1     -0.0615
     27 C         5.777018   9.36045   -1.858966 C.ar        1 UNL1     0.1347
     28 C         4.79489   9.532233   -0.899817 C.ar        1 UNL1     0.0342
     29 C         4.166104   8.338564   -0.486358 C.ar        1 UNL1     0.1435
     30 C         4.473481   7.092456   -1.03404 C.ar        1 UNL1     0.0774
     31 O         3.11333   8.353208   0.360081 O.3        1 UNL1     -0.4436
     32 C         2.475612   7.081523   0.167711 C.3        1 UNL1     0.3143
     33 C         3.556251   6.176563   -0.388598 C.2        1 UNL1     0.2504
     34 C         4.255578   10.849565   -0.416207 C.3        1 UNL1     -0.0327
     35 O         2.134396   6.575641   1.464208 O.2        1 UNL1     -0.4528
     36 C         -0.971063   4.450155   0.967701 C.3        1 UNL1     0.0854
     37 C         -1.18567   3.204915   0.023855 C.3        1 UNL1     0.0236
     38 C         -1.707853   1.880006   0.761205 C.3        1 UNL1     0.1131
     39 C         -0.958739   1.351959   2.050493 C.3        1 UNL1     0.0200
     40 C         0.708067   1.314346   2.103225 C.3        1 UNL1     0.0661
     41 C         1.725023   0.6521   0.917965 C.3        1 UNL1     0.0091
     42 C         3.409297   1.145704   0.384132 C.3        1 UNL1     0.0661
     43 C         7.039254   8.023886   -3.55838 C.2        1 UNL1     0.2131
     44 O         7.384598   8.971208   -4.241063 O.2        1 UNL1     -0.2851
     45 O         6.522796   10.462243   -2.272856 O.3        1 UNL1     -0.5056
     46 O         3.650533   4.972788   -0.299772 O.2        1 UNL1     -0.2836
     47 C         5.469662   1.566364   2.026007 C.3        1 UNL1     -0.0566
     48 O         3.949262   -0.234944   0.421093 O.3        1 UNL1     -0.3909
     49 C         0.917575   0.409449   -0.337679 C.3        1 UNL1     -0.0577
     50 O         1.223629   2.554248   2.544317 O.3        1 UNL1     -0.3910
     51 O         -1.09311   4.203472   2.350337 O.3        1 UNL1     -0.3753
     52 C         -0.124048   3.15433   -1.123032 C.3        1 UNL1     -0.0564
     53 O         -2.233695   0.836326   -0.180362 O.3        1 UNL1     -0.4608
     54 C         -2.381184   -0.494765   0.110107 C.2        1 UNL1     0.3042
     55 O         -1.65088   -1.420998   -0.240017 O.2        1 UNL1     -0.2512
     56 C         -3.551465   -0.788985   1.004865 C.3        1 UNL1     0.0332
     57 C         -1.732007   1.927013   3.32703 C.3        1 UNL1     -0.0567
     58 C         1.394994   7.293877   -0.917969 C.3        1 UNL1     0.0210
     59 C         -2.272747   4.734664   2.952132 C.3        1 UNL1     0.0372
     60 C         0.315312   5.172863   0.772532 C.2        1 UNL1     -0.0208
     61 C         1.190839   5.635916   1.665717 C.2        1 UNL1     0.0882
     62 H         4.516541   2.966809   0.716568 H        1 UNL1     0.0365
     63 H         6.107971   3.977681   -0.068108 H        1 UNL1     0.0576
     64 H         8.256659   2.03157   -1.113369 H        1 UNL1     0.0615
     65 H         7.985479   5.14252   -1.192773 H        1 UNL1     0.0622
     66 H         -1.760889   5.156761   0.676276 H        1 UNL1     0.0645
     67 H         -2.064989   3.478332   -0.584916 H        1 UNL1     0.0362
     68 H         -2.684345   2.241048   1.118463 H        1 UNL1     0.0741
     69 H         -1.224388   0.314993   2.207144 H        1 UNL1     0.0359
     70 H         0.856329   0.631911   2.961922 H        1 UNL1     0.0600
     71 H         1.832531   -0.378515   1.309414 H        1 UNL1     0.0348
     72 H         3.263915   1.590831   1.37914 H        1 UNL1     0.0602
     73 H         0.427937   5.414087   -0.255269 H        1 UNL1     0.0628
     74 H         1.178971   5.386717   2.727318 H        1 UNL1     0.1022
     75 H         11.51802   3.711281   -2.718866 H        1 UNL1     0.0279
     76 H         10.486995   3.32906   -4.039545 H        1 UNL1     0.0279
     77 H         11.256627   4.957934   -3.867108 H        1 UNL1     0.0279
     78 H         8.788631   5.518723   -4.762951 H        1 UNL1     0.1553
     79 H         7.607128   3.954607   -4.473443 H        1 UNL1     0.1484
     80 H         3.906968   3.112187   -4.67001 H        1 UNL1     0.0317
     81 H         4.542906   4.700324   -5.074149 H        1 UNL1     0.0317
     82 H         6.537798   3.678808   -6.201366 H        1 UNL1     0.0428
     83 H         5.021761   3.124754   -6.876911 H        1 UNL1     0.0428
     84 H         6.948803   0.511885   -4.126899 H        1 UNL1     0.0428
     85 H         7.766746   1.993281   -4.481242 H        1 UNL1     0.0428
     86 H         6.455964   1.90469   -2.360191 H        1 UNL1     0.0317
     87 H         4.98441   1.607702   -3.165597 H        1 UNL1     0.0317
     88 H         7.268492   1.571433   -7.274407 H        1 UNL1     0.0429
     89 H         6.997112   0.032996   -6.452336 H        1 UNL1     0.0429
     90 H         4.419636   0.97402   -7.336096 H        1 UNL1     0.0308
     91 H         6.610955   1.36253   -9.444205 H        1 UNL1     0.0233
     92 H         4.903798   1.071665   -9.864335 H        1 UNL1     0.0233
     93 H         5.362117   2.512994   -8.982793 H        1 UNL1     0.0233
     94 H         4.767976   -1.016765   -8.974513 H        1 UNL1     0.0233
     95 H         6.264328   -1.270629   -8.063026 H        1 UNL1     0.0233
     96 H         4.69556   -1.316412   -7.225851 H        1 UNL1     0.0233
     97 H         3.184138   10.933102   -0.571988 H        1 UNL1     0.0280
     98 H         4.414666   10.991613   0.660718 H        1 UNL1     0.0280
     99 H         4.748924   11.672126   -0.959437 H        1 UNL1     0.0280
     100 H         6.010705   11.217338   -2.503542 H        1 UNL1     0.2922
     101 H         4.664098   0.985476   2.474662 H        1 UNL1     0.0236
     102 H         5.78318   2.391812   2.664227 H        1 UNL1     0.0236
     103 H         6.333214   0.880667   2.008943 H        1 UNL1     0.0236
     104 H         4.290854   -0.394018   1.322747 H        1 UNL1     0.2098
     105 H         0.69165   1.30763   -0.906925 H        1 UNL1     0.0234
     106 H         1.31762   -0.363195   -0.994118 H        1 UNL1     0.0234
     107 H         0.0   -0.0   0.0 H        1 UNL1     0.0234
     108 H         1.12441   3.188129   1.80803 H        1 UNL1     0.2098
     109 H         -0.168998   4.040892   -1.770873 H        1 UNL1     0.0234
     110 H         0.899355   3.019808   -0.756569 H        1 UNL1     0.0234
     111 H         -0.284825   2.293517   -1.785677 H        1 UNL1     0.0234
     112 H         -4.093384   -1.66393   0.633194 H        1 UNL1     0.0342
     113 H         -3.249409   -0.927937   2.041831 H        1 UNL1     0.0342
     114 H         -4.234955   0.070527   0.969572 H        1 UNL1     0.0342
     115 H         -2.80781   1.707596   3.285905 H        1 UNL1     0.0234
     116 H         -1.356297   1.55044   4.280489 H        1 UNL1     0.0234
     117 H         -1.741104   3.029489   3.376064 H        1 UNL1     0.0234
     118 H         0.373336   7.225778   -0.504953 H        1 UNL1     0.0309
     119 H         1.502981   8.243448   -1.451689 H        1 UNL1     0.0309
     120 H         1.410091   6.511626   -1.684756 H        1 UNL1     0.0309
     121 H         -2.058189   4.901198   4.007399 H        1 UNL1     0.0524
     122 H         -2.564787   5.704342   2.515697 H        1 UNL1     0.0524
     123 H         -3.097553   4.036179   2.843014 H        1 UNL1     0.0524
@<TRIPOS>BOND
     1     1     2    1
     2     1    42    1
     3     2     3    2
     4     3     4    1
     5     4     5    2
     6     5     7    1
     7     6    75    1
     8     6    76    1
     9     6    77    1
    10     7     9   am
    11     9    10    1
    12    10    11    2
    13    10    43    1
    14    11    14    1
    15    11    15    1
    16    12    13   ar
    17    12    27   ar
    18    12    43    1
    19    13    14    1
    20    13    30   ar
    21    14    17    2
    22    15    16    1
    23    16    17    1
    24    16    18    1
    25    16    22    1
    26    18    19    1
    27    19    20    1
    28    20    21    1
    29    21    22    1
    30    23    24    1
    31    23    88    1
    32    23    89    1
    33    24    25    1
    34    24    26    1
    35    24    90    1
    36    25    91    1
    37    25    92    1
    38    25    93    1
    39    26    94    1
    40    26    95    1
    41    26    96    1
    42    27    28   ar
    43    28    29   ar
    44    29    30   ar
    45    29    31    1
    46    30    33    1
    47    31    32    1
    48    32    33    1
    49    32    35    1
    50    34    97    1
    51    34    98    1
    52    34    99    1
    53    35    61    1
    54    36    37    1
    55    36    60    1
    56    37    38    1
    57    38    39    1
    58    39    40    1
    59    40    41    1
    60    41    42    1
    61    45   100    1
    62    47   101    1
    63    47   102    1
    64    47   103    1
    65    48   104    1
    66    49   105    1
    67    49   106    1
    68    49   107    1
    69    50   108    1
    70    51    59    1
    71    52   109    1
    72    52   110    1
    73    52   111    1
    74    53    54    1
    75    54    55    2
    76    54    56    1
    77    56   112    1
    78    56   113    1
    79    56   114    1
    80    57   115    1
    81    57   116    1
    82    57   117    1
    83    58   118    1
    84    58   119    1
    85    58   120    1
    86    59   121    1
    87    59   122    1
    88    59   123    1
    89    60    61    2
    90     1    47    1
    91     1    62    1
    92     2    63    1
    93     3    64    1
    94     4    65    1
    95     5     6    1
    96     7     8    2
    97     9    78    1
    98    15    79    1
    99    18    80    1
   100    18    81    1
   101    19    82    1
   102    19    83    1
   103    20    23    1
   104    21    84    1
   105    21    85    1
   106    22    86    1
   107    22    87    1
   108    27    45    1
   109    28    34    1
   110    32    58    1
   111    33    46    2
   112    36    51    1
   113    36    66    1
   114    37    52    1
   115    37    67    1
   116    38    53    1
   117    38    68    1
   118    42    48    1
   119    42    72    1
   120    43    44    2
   121    60    73    1
   122    61    74    1
   123    39    69    1
   124    39    57    1
   125    40    70    1
   126    40    50    1
   127    41    71    1
   128    41    49    1
