@<TRIPOS>MOLECULE
*****
 123 128 0 0 0
SMALL
GASTEIGER

@<TRIPOS>ATOM
     1 C         -4.920941   -1.417803   -1.522763 C.3        1 UNL1     0.0009
     2 C         -6.596788   -1.9717   -0.955512 C.2        1 UNL1     -0.0787
     3 C         -7.518681   -3.033426   -0.6107 C.2        1 UNL1     -0.0649
     4 C         -9.079391   -2.889311   0.029434 C.2        1 UNL1     -0.0542
     5 C         -10.112142   -3.557219   0.732572 C.2        1 UNL1     0.0115
     6 C         -10.581791   -4.940741   1.260417 C.3        1 UNL1     -0.0348
     7 C         -11.26754   -2.686364   1.428027 C.2        1 UNL1     0.2441
     8 O         -12.384009   -2.5556   0.945405 O.2        1 UNL1     -0.2702
     9 N         -10.99744   -2.299913   2.752358 N.am        1 UNL1     -0.2772
     10 C         -10.311339   -1.10739   2.774163 C.2        1 UNL1     0.1049
     11 C         -9.004536   -1.184467   2.599385 C.2        1 UNL1     0.0801
     12 C         -10.337943   1.213686   1.841837 C.ar        1 UNL1     0.0753
     13 C         -8.968824   1.001018   1.48282 C.ar        1 UNL1     0.0305
     14 C         -8.221425   -0.156823   1.968463 C.2        1 UNL1     0.0924
     15 N         -8.193311   -2.256067   2.61011 N.pl3        1 UNL1     -0.3170
     16 C         -6.836835   -1.780988   2.542823 C.3        1 UNL1     0.1275
     17 N         -6.934739   -0.459367   1.820704 N.2        1 UNL1     -0.2557
     18 C         -6.401166   -1.453671   3.96787 C.3        1 UNL1     0.0016
     19 C         -6.590917   -2.691011   4.830757 C.3        1 UNL1     0.0026
     20 N         -5.793431   -3.77558   4.275101 N.3        1 UNL1     -0.3018
     21 C         -6.097726   -4.122125   2.885252 C.3        1 UNL1     0.0026
     22 C         -5.896117   -2.866102   2.035749 C.3        1 UNL1     0.0016
     23 C         -5.665392   -4.901592   5.17862 C.3        1 UNL1     0.0012
     24 C         -6.876615   -4.975976   6.121573 C.3        1 UNL1     -0.0339
     25 C         -8.181894   -4.623844   5.389242 C.3        1 UNL1     -0.0615
     26 C         -6.950616   -6.348842   6.766975 C.3        1 UNL1     -0.0615
     27 C         -11.007559   2.378806   1.475463 C.ar        1 UNL1     0.1347
     28 C         -10.403735   3.415573   0.78658 C.ar        1 UNL1     0.0342
     29 C         -9.069933   3.163147   0.401331 C.ar        1 UNL1     0.1435
     30 C         -8.397385   1.985474   0.729946 C.ar        1 UNL1     0.0774
     31 O         -8.311238   4.118358   -0.179152 O.3        1 UNL1     -0.4436
     32 C         -6.959473   3.676183   0.016003 C.3        1 UNL1     0.3143
     33 C         -7.057793   2.177157   0.214665 C.2        1 UNL1     0.2504
     34 C         -10.978194   4.789397   0.57993 C.3        1 UNL1     -0.0327
     35 O         -6.259675   3.888708   -1.216218 O.2        1 UNL1     -0.4528
     36 C         -2.646198   4.549696   -0.260204 C.3        1 UNL1     0.0854
     37 C         -1.654187   3.647337   0.569968 C.3        1 UNL1     0.0236
     38 C         -0.270585   3.309161   -0.166935 C.3        1 UNL1     0.1131
     39 C         -0.285918   2.734519   -1.640645 C.3        1 UNL1     0.0200
     40 C         -1.371598   1.54384   -2.071946 C.3        1 UNL1     0.0661
     41 C         -1.653747   0.101933   -1.224062 C.3        1 UNL1     0.0091
     42 C         -3.187434   -0.886708   -1.03486 C.3        1 UNL1     0.0661
     43 C         -10.995089   0.192016   2.694251 C.2        1 UNL1     0.2131
     44 O         -11.977297   0.416644   3.378024 O.2        1 UNL1     -0.2851
     45 O         -12.352004   2.487228   1.824962 O.3        1 UNL1     -0.5056
     46 O         -6.225713   1.329695   -0.020505 O.2        1 UNL1     -0.2836
     47 C         -4.755586   -1.672313   -3.045217 C.3        1 UNL1     -0.0566
     48 O         -2.527478   -2.179362   -1.339194 O.3        1 UNL1     -0.3909
     49 C         -1.027863   0.212377   0.148368 C.3        1 UNL1     -0.0577
     50 O         -2.599282   2.110342   -2.483761 O.3        1 UNL1     -0.3910
     51 O         -2.278179   4.800467   -1.597779 O.3        1 UNL1     -0.3753
     52 C         -2.414904   2.590469   1.435584 C.3        1 UNL1     -0.0564
     53 O         0.781461   2.761615   0.752694 O.3        1 UNL1     -0.4608
     54 C         2.13273   2.940016   0.610656 C.2        1 UNL1     0.3042
     55 O         2.948211   3.203251   1.493571 O.2        1 UNL1     -0.2512
     56 C         2.623772   2.723197   -0.792405 C.3        1 UNL1     0.0332
     57 C         -0.095901   3.967798   -2.641189 C.3        1 UNL1     -0.0567
     58 C         -6.473534   4.323258   1.333837 C.3        1 UNL1     0.0210
     59 C         -2.321661   3.660781   -2.455152 C.3        1 UNL1     0.0372
     60 C         -4.056756   4.07548   -0.284806 C.2        1 UNL1     -0.0208
     61 C         -4.918267   3.97754   -1.298192 C.2        1 UNL1     0.0882
     62 H         -5.248988   -0.377077   -1.413274 H        1 UNL1     0.0365
     63 H         -7.121154   -1.015152   -0.905256 H        1 UNL1     0.0576
     64 H         -7.203749   -4.079014   -0.584783 H        1 UNL1     0.0615
     65 H         -9.32436   -1.833727   -0.116219 H        1 UNL1     0.0622
     66 H         -2.660247   5.509399   0.27535 H        1 UNL1     0.0645
     67 H         -1.312364   4.306233   1.38702 H        1 UNL1     0.0362
     68 H         0.144435   4.324876   -0.254127 H        1 UNL1     0.0741
     69 H         0.669429   2.268728   -1.84253 H        1 UNL1     0.0359
     70 H         -0.90258   1.188639   -3.009451 H        1 UNL1     0.0600
     71 H         -0.935571   -0.567544   -1.736878 H        1 UNL1     0.0348
     72 H         -3.343635   -0.250755   -1.918308 H        1 UNL1     0.0602
     73 H         -4.387712   3.912124   0.7107 H        1 UNL1     0.0628
     74 H         -4.646426   4.072403   -2.350019 H        1 UNL1     0.1022
     75 H         -10.93656   -5.581965   0.417798 H        1 UNL1     0.0279
     76 H         -9.82298   -5.5652   1.726599 H        1 UNL1     0.0279
     77 H         -11.488745   -4.874349   1.879065 H        1 UNL1     0.0279
     78 H         -10.409304   -2.999925   3.199747 H        1 UNL1     0.1553
     79 H         -8.440841   -3.13794   3.019942 H        1 UNL1     0.1484
     80 H         -5.353225   -1.130489   3.956031 H        1 UNL1     0.0317
     81 H         -6.982308   -0.618109   4.372543 H        1 UNL1     0.0317
     82 H         -7.650483   -2.976796   4.905311 H        1 UNL1     0.0428
     83 H         -6.276018   -2.434979   5.842852 H        1 UNL1     0.0428
     84 H         -5.432077   -4.883704   2.467256 H        1 UNL1     0.0428
     85 H         -7.100631   -4.559239   2.783124 H        1 UNL1     0.0428
     86 H         -5.996794   -3.187281   1.015604 H        1 UNL1     0.0317
     87 H         -4.851687   -2.536537   2.096165 H        1 UNL1     0.0317
     88 H         -5.63344   -5.819796   4.577641 H        1 UNL1     0.0429
     89 H         -4.725745   -4.854381   5.743959 H        1 UNL1     0.0429
     90 H         -6.73531   -4.265349   6.944528 H        1 UNL1     0.0308
     91 H         -9.031925   -4.605919   6.077884 H        1 UNL1     0.0233
     92 H         -8.098581   -3.652069   4.89698 H        1 UNL1     0.0233
     93 H         -8.426342   -5.346027   4.60087 H        1 UNL1     0.0233
     94 H         -7.471319   -7.049618   6.105449 H        1 UNL1     0.0233
     95 H         -5.942273   -6.734964   6.940518 H        1 UNL1     0.0233
     96 H         -7.483944   -6.31304   7.721044 H        1 UNL1     0.0233
     97 H         -10.622229   5.245917   -0.338824 H        1 UNL1     0.0280
     98 H         -12.073184   4.772755   0.502623 H        1 UNL1     0.0280
     99 H         -10.691684   5.439788   1.422544 H        1 UNL1     0.0280
     100 H         -12.505474   2.710951   2.726082 H        1 UNL1     0.2922
     101 H         -5.561252   -1.180442   -3.589846 H        1 UNL1     0.0236
     102 H         -4.677462   -2.729401   -3.297098 H        1 UNL1     0.0236
     103 H         -3.831895   -1.219676   -3.442843 H        1 UNL1     0.0236
     104 H         -3.084772   -2.64898   -1.990234 H        1 UNL1     0.2098
     105 H         -1.102162   1.199471   0.597742 H        1 UNL1     0.0234
     106 H         -1.348138   -0.550682   0.857658 H        1 UNL1     0.0234
     107 H         0.0   0.0   0.0 H        1 UNL1     0.0234
     108 H         -3.132785   1.392642   -2.876252 H        1 UNL1     0.2098
     109 H         -2.974592   1.873102   0.819267 H        1 UNL1     0.0234
     110 H         -1.760144   2.04784   2.125936 H        1 UNL1     0.0234
     111 H         -3.158735   3.063482   2.090502 H        1 UNL1     0.0234
     112 H         3.707386   2.86941   -0.83422 H        1 UNL1     0.0342
     113 H         2.346746   1.742522   -1.1763 H        1 UNL1     0.0342
     114 H         2.156844   3.478165   -1.439835 H        1 UNL1     0.0342
     115 H         -0.183427   3.658548   -3.691852 H        1 UNL1     0.0234
     116 H         -0.802811   4.783928   -2.47914 H        1 UNL1     0.0234
     117 H         0.922836   4.391998   -2.628073 H        1 UNL1     0.0234
     118 H         -7.312568   4.699122   1.945192 H        1 UNL1     0.0309
     119 H         -5.86031   3.65079   1.942068 H        1 UNL1     0.0309
     120 H         -5.864666   5.217862   1.163336 H        1 UNL1     0.0309
     121 H         -2.435133   4.021219   -3.477191 H        1 UNL1     0.0524
     122 H         -1.391644   3.069746   -2.412914 H        1 UNL1     0.0524
     123 H         -3.158246   3.0213   -2.188162 H        1 UNL1     0.0524
@<TRIPOS>BOND
     1     1     2    1
     2     1    42    1
     3     2     3    2
     4     3     4    1
     5     4     5    2
     6     5     7    1
     7     6    75    1
     8     6    76    1
     9     6    77    1
    10     7     9   am
    11     9    10    1
    12    10    11    2
    13    10    43    1
    14    11    14    1
    15    11    15    1
    16    12    13   ar
    17    12    27   ar
    18    12    43    1
    19    13    14    1
    20    13    30   ar
    21    14    17    2
    22    15    16    1
    23    16    17    1
    24    16    18    1
    25    16    22    1
    26    18    19    1
    27    19    20    1
    28    20    21    1
    29    21    22    1
    30    23    24    1
    31    23    88    1
    32    23    89    1
    33    24    25    1
    34    24    26    1
    35    24    90    1
    36    25    91    1
    37    25    92    1
    38    25    93    1
    39    26    94    1
    40    26    95    1
    41    26    96    1
    42    27    28   ar
    43    28    29   ar
    44    29    30   ar
    45    29    31    1
    46    30    33    1
    47    31    32    1
    48    32    33    1
    49    32    35    1
    50    34    97    1
    51    34    98    1
    52    34    99    1
    53    35    61    1
    54    36    37    1
    55    36    60    1
    56    37    38    1
    57    38    39    1
    58    39    40    1
    59    40    41    1
    60    41    42    1
    61    45   100    1
    62    47   101    1
    63    47   102    1
    64    47   103    1
    65    48   104    1
    66    49   105    1
    67    49   106    1
    68    49   107    1
    69    50   108    1
    70    51    59    1
    71    52   109    1
    72    52   110    1
    73    52   111    1
    74    53    54    1
    75    54    55    2
    76    54    56    1
    77    56   112    1
    78    56   113    1
    79    56   114    1
    80    57   115    1
    81    57   116    1
    82    57   117    1
    83    58   118    1
    84    58   119    1
    85    58   120    1
    86    59   121    1
    87    59   122    1
    88    59   123    1
    89    60    61    2
    90     1    47    1
    91     1    62    1
    92     2    63    1
    93     3    64    1
    94     4    65    1
    95     5     6    1
    96     7     8    2
    97     9    78    1
    98    15    79    1
    99    18    80    1
   100    18    81    1
   101    19    82    1
   102    19    83    1
   103    20    23    1
   104    21    84    1
   105    21    85    1
   106    22    86    1
   107    22    87    1
   108    27    45    1
   109    28    34    1
   110    32    58    1
   111    33    46    2
   112    36    51    1
   113    36    66    1
   114    37    52    1
   115    37    67    1
   116    38    53    1
   117    38    68    1
   118    42    48    1
   119    42    72    1
   120    43    44    2
   121    60    73    1
   122    61    74    1
   123    39    69    1
   124    39    57    1
   125    40    70    1
   126    40    50    1
   127    41    71    1
   128    41    49    1
