@<TRIPOS>MOLECULE
*****
 123 128 0 0 0
SMALL
GASTEIGER

@<TRIPOS>ATOM
     1 C         1.776709   -1.726672   -4.884791 C.3        1 UNL1     0.0009
     2 C         1.857713   -1.373517   -6.702965 C.2        1 UNL1     -0.0787
     3 C         1.378792   -1.603518   -8.049731 C.2        1 UNL1     -0.0649
     4 C         1.828812   -0.793572   -9.466708 C.2        1 UNL1     -0.0542
     5 C         1.455228   -0.490207   -10.799181 C.2        1 UNL1     0.0115
     6 C         0.444693   -0.829662   -11.929186 C.3        1 UNL1     -0.0348
     7 C         2.168503   0.739289   -11.545215 C.2        1 UNL1     0.2441
     8 O         3.056637   0.590446   -12.373219 O.2        1 UNL1     -0.2702
     9 N         1.528926   1.980067   -11.379196 N.am        1 UNL1     -0.2772
     10 C         1.991287   2.610979   -10.247165 C.2        1 UNL1     0.1049
     11 C         1.433154   2.244726   -9.107617 C.2        1 UNL1     0.0801
     12 C         4.093178   3.256881   -9.054604 C.ar        1 UNL1     0.0753
     13 C         3.522981   2.655433   -7.887666 C.ar        1 UNL1     0.0305
     14 C         2.120625   2.247256   -7.844782 C.2        1 UNL1     0.0924
     15 N         0.335127   1.502918   -8.882705 N.pl3        1 UNL1     -0.3170
     16 C         0.059158   1.543233   -7.471156 C.3        1 UNL1     0.1275
     17 N         1.405898   1.771108   -6.829215 N.2        1 UNL1     -0.2557
     18 C         -0.75558   2.805524   -7.205591 C.3        1 UNL1     0.0016
     19 C         -1.994188   2.779297   -8.086926 C.3        1 UNL1     0.0026
     20 N         -2.764601   1.583245   -7.775559 N.3        1 UNL1     -0.3018
     21 C         -2.044353   0.319087   -7.941445 C.3        1 UNL1     0.0026
     22 C         -0.806614   0.365371   -7.043807 C.3        1 UNL1     0.0016
     23 C         -4.100688   1.611132   -8.336574 C.3        1 UNL1     0.0012
     24 C         -4.968715   2.649966   -7.609174 C.3        1 UNL1     -0.0339
     25 C         -5.057113   3.96382   -8.402919 C.3        1 UNL1     -0.0615
     26 C         -6.345271   2.073153   -7.327818 C.3        1 UNL1     -0.0615
     27 C         5.394698   3.752987   -9.048201 C.ar        1 UNL1     0.1347
     28 C         6.205497   3.740024   -7.92727 C.ar        1 UNL1     0.0342
     29 C         5.640534   3.099081   -6.80425 C.ar        1 UNL1     0.1435
     30 C         4.351274   2.565204   -6.806785 C.ar        1 UNL1     0.0774
     31 O         6.261738   3.101871   -5.604624 O.3        1 UNL1     -0.4436
     32 C         5.223958   2.805127   -4.658142 C.3        1 UNL1     0.3143
     33 C         4.155252   2.084619   -5.454979 C.2        1 UNL1     0.2504
     34 C         7.50874   4.473461   -7.773236 C.3        1 UNL1     -0.0327
     35 O         5.757311   1.858402   -3.724067 O.2        1 UNL1     -0.4528
     36 C         3.958181   2.505118   -0.444894 C.3        1 UNL1     0.0854
     37 C         2.411485   2.487596   -0.136755 C.3        1 UNL1     0.0236
     38 C         1.970999   1.510289   1.055967 C.3        1 UNL1     0.1131
     39 C         2.45354   0.003828   1.055443 C.3        1 UNL1     0.0200
     40 C         2.416976   -0.894556   -0.34955 C.3        1 UNL1     0.0661
     41 C         1.093834   -1.041451   -1.400895 C.3        1 UNL1     0.0091
     42 C         1.039142   -1.265976   -3.220785 C.3        1 UNL1     0.0661
     43 C         3.22203   3.415729   -10.245457 C.2        1 UNL1     0.2131
     44 O         3.430878   4.227529   -11.128689 O.2        1 UNL1     -0.2851
     45 O         5.889489   4.281465   -10.238719 O.3        1 UNL1     -0.5056
     46 O         3.340062   1.278512   -5.065734 O.2        1 UNL1     -0.2836
     47 C         2.416795   -3.106507   -4.574423 C.3        1 UNL1     -0.0566
     48 O         0.047762   -2.367634   -3.169493 O.3        1 UNL1     -0.3909
     49 C         0.076657   0.023706   -1.056968 C.3        1 UNL1     -0.0577
     50 O         3.605994   -0.712702   -1.091771 O.3        1 UNL1     -0.3910
     51 O         4.732882   1.543937   0.23584 O.3        1 UNL1     -0.3753
     52 C         1.55743   2.650392   -1.436384 C.3        1 UNL1     -0.0564
     53 O         0.580656   1.766248   1.55971 O.3        1 UNL1     -0.4608
     54 C         -0.180563   0.881101   2.277338 C.2        1 UNL1     0.3042
     55 O         -1.203527   0.305495   1.908473 O.2        1 UNL1     -0.2512
     56 C         0.37544   0.575925   3.639117 C.3        1 UNL1     0.0332
     57 C         3.769489   -0.08139   1.960534 C.3        1 UNL1     -0.0567
     58 C         4.661302   4.165694   -4.185061 C.3        1 UNL1     0.0210
     59 C         6.097546   1.908066   0.438246 C.3        1 UNL1     0.0372
     60 C         4.313426   2.400095   -1.886398 C.2        1 UNL1     -0.0208
     61 C         5.239558   1.659478   -2.496734 C.2        1 UNL1     0.0882
     62 H         2.55914   -0.975347   -4.723472 H        1 UNL1     0.0365
     63 H         2.709979   -0.691807   -6.740172 H        1 UNL1     0.0576
     64 H         0.520368   -2.248697   -8.249633 H        1 UNL1     0.0615
     65 H         2.73105   -0.246998   -9.179118 H        1 UNL1     0.0622
     66 H         4.292264   3.501867   -0.124072 H        1 UNL1     0.0645
     67 H         2.215473   3.478761   0.307915 H        1 UNL1     0.0362
     68 H         2.505272   1.987508   1.891631 H        1 UNL1     0.0741
     69 H         1.815866   -0.566107   1.717978 H        1 UNL1     0.0359
     70 H         2.507889   -1.913424   0.073183 H        1 UNL1     0.0600
     71 H         0.611978   -1.945674   -0.979998 H        1 UNL1     0.0348
     72 H         2.050131   -1.565497   -2.908528 H        1 UNL1     0.0602
     73 H         3.778929   3.137261   -2.432427 H        1 UNL1     0.0628
     74 H         5.78875   0.845219   -2.022805 H        1 UNL1     0.1022
     75 H         -0.298826   -1.584506   -11.576449 H        1 UNL1     0.0279
     76 H         -0.191425   -0.016508   -12.271537 H        1 UNL1     0.0279
     77 H         0.911182   -1.36186   -12.771121 H        1 UNL1     0.0279
     78 H         0.528066   1.836064   -11.262497 H        1 UNL1     0.1553
     79 H         -0.375871   1.337425   -9.571201 H        1 UNL1     0.1484
     80 H         -1.021368   2.842382   -6.142217 H        1 UNL1     0.0317
     81 H         -0.163897   3.703808   -7.412105 H        1 UNL1     0.0317
     82 H         -1.734594   2.815957   -9.155186 H        1 UNL1     0.0428
     83 H         -2.55968   3.689052   -7.882928 H        1 UNL1     0.0428
     84 H         -2.618337   -0.557517   -7.625345 H        1 UNL1     0.0428
     85 H         -1.809077   0.117964   -8.995727 H        1 UNL1     0.0428
     86 H         -0.379602   -0.619342   -7.088417 H        1 UNL1     0.0317
     87 H         -1.108595   0.463724   -5.993935 H        1 UNL1     0.0317
     88 H         -4.021626   1.899789   -9.392851 H        1 UNL1     0.0429
     89 H         -4.565699   0.61727   -8.308709 H        1 UNL1     0.0429
     90 H         -4.527275   2.8635   -6.628487 H        1 UNL1     0.0308
     91 H         -5.453053   3.794934   -9.408807 H        1 UNL1     0.0233
     92 H         -5.691593   4.686445   -7.884405 H        1 UNL1     0.0233
     93 H         -4.079348   4.445962   -8.522713 H        1 UNL1     0.0233
     94 H         -7.023318   2.863036   -6.986977 H        1 UNL1     0.0233
     95 H         -6.76321   1.641113   -8.2414 H        1 UNL1     0.0233
     96 H         -6.303249   1.297738   -6.557796 H        1 UNL1     0.0233
     97 H         7.934557   4.343978   -6.782709 H        1 UNL1     0.0280
     98 H         8.271049   4.115026   -8.477271 H        1 UNL1     0.0280
     99 H         7.348095   5.550841   -7.942179 H        1 UNL1     0.0280
     100 H         6.227181   5.157009   -10.16794 H        1 UNL1     0.2922
     101 H         2.413634   -3.279605   -3.498466 H        1 UNL1     0.0236
     102 H         3.410727   -3.224482   -5.004728 H        1 UNL1     0.0236
     103 H         1.828372   -3.939693   -4.993651 H        1 UNL1     0.0236
     104 H         0.54274   -3.210226   -3.172165 H        1 UNL1     0.2098
     105 H         0.365386   1.030813   -1.34711 H        1 UNL1     0.0234
     106 H         -0.937887   -0.190034   -1.393039 H        1 UNL1     0.0234
     107 H         -0.0   0.0   0.0 H        1 UNL1     0.0234
     108 H         3.626537   0.219264   -1.38295 H        1 UNL1     0.2098
     109 H         1.760826   1.857667   -2.169821 H        1 UNL1     0.0234
     110 H         0.480949   2.700889   -1.24047 H        1 UNL1     0.0234
     111 H         1.779019   3.59507   -1.950608 H        1 UNL1     0.0234
     112 H         -0.265672   -0.149706   4.148805 H        1 UNL1     0.0342
     113 H         1.404401   0.222618   3.591606 H        1 UNL1     0.0342
     114 H         0.36881   1.503374   4.22815 H        1 UNL1     0.0342
     115 H         3.579437   0.252244   2.989979 H        1 UNL1     0.0234
     116 H         4.207213   -1.080152   2.01458 H        1 UNL1     0.0234
     117 H         4.562164   0.621585   1.651611 H        1 UNL1     0.0234
     118 H         5.273514   4.610586   -3.381149 H        1 UNL1     0.0309
     119 H         4.553861   4.891912   -4.997013 H        1 UNL1     0.0309
     120 H         3.670452   4.074383   -3.72682 H        1 UNL1     0.0309
     121 H         6.566052   1.989118   -0.542208 H        1 UNL1     0.0524
     122 H         6.200002   2.886215   0.937008 H        1 UNL1     0.0524
     123 H         6.603409   1.153714   1.03419 H        1 UNL1     0.0524
@<TRIPOS>BOND
     1     1     2    1
     2     1    42    1
     3     2     3    2
     4     3     4    1
     5     4     5    2
     6     5     7    1
     7     6    75    1
     8     6    76    1
     9     6    77    1
    10     7     9   am
    11     9    10    1
    12    10    11    2
    13    10    43    1
    14    11    14    1
    15    11    15    1
    16    12    13   ar
    17    12    27   ar
    18    12    43    1
    19    13    14    1
    20    13    30   ar
    21    14    17    2
    22    15    16    1
    23    16    17    1
    24    16    18    1
    25    16    22    1
    26    18    19    1
    27    19    20    1
    28    20    21    1
    29    21    22    1
    30    23    24    1
    31    23    88    1
    32    23    89    1
    33    24    25    1
    34    24    26    1
    35    24    90    1
    36    25    91    1
    37    25    92    1
    38    25    93    1
    39    26    94    1
    40    26    95    1
    41    26    96    1
    42    27    28   ar
    43    28    29   ar
    44    29    30   ar
    45    29    31    1
    46    30    33    1
    47    31    32    1
    48    32    33    1
    49    32    35    1
    50    34    97    1
    51    34    98    1
    52    34    99    1
    53    35    61    1
    54    36    37    1
    55    36    60    1
    56    37    38    1
    57    38    39    1
    58    39    40    1
    59    40    41    1
    60    41    42    1
    61    45   100    1
    62    47   101    1
    63    47   102    1
    64    47   103    1
    65    48   104    1
    66    49   105    1
    67    49   106    1
    68    49   107    1
    69    50   108    1
    70    51    59    1
    71    52   109    1
    72    52   110    1
    73    52   111    1
    74    53    54    1
    75    54    55    2
    76    54    56    1
    77    56   112    1
    78    56   113    1
    79    56   114    1
    80    57   115    1
    81    57   116    1
    82    57   117    1
    83    58   118    1
    84    58   119    1
    85    58   120    1
    86    59   121    1
    87    59   122    1
    88    59   123    1
    89    60    61    2
    90     1    47    1
    91     1    62    1
    92     2    63    1
    93     3    64    1
    94     4    65    1
    95     5     6    1
    96     7     8    2
    97     9    78    1
    98    15    79    1
    99    18    80    1
   100    18    81    1
   101    19    82    1
   102    19    83    1
   103    20    23    1
   104    21    84    1
   105    21    85    1
   106    22    86    1
   107    22    87    1
   108    27    45    1
   109    28    34    1
   110    32    58    1
   111    33    46    2
   112    36    51    1
   113    36    66    1
   114    37    52    1
   115    37    67    1
   116    38    53    1
   117    38    68    1
   118    42    48    1
   119    42    72    1
   120    43    44    2
   121    60    73    1
   122    61    74    1
   123    39    69    1
   124    39    57    1
   125    40    70    1
   126    40    50    1
   127    41    71    1
   128    41    49    1
