@<TRIPOS>MOLECULE
*****
 123 128 0 0 0
SMALL
GASTEIGER

@<TRIPOS>ATOM
     1 C         2.656929   3.548119   0.612855 C.3        1 UNL1     0.0009
     2 C         4.251231   3.830055   1.516044 C.2        1 UNL1     -0.0787
     3 C         4.968521   4.095087   2.745393 C.2        1 UNL1     -0.0649
     4 C         6.644103   4.136359   2.984306 C.2        1 UNL1     -0.0542
     5 C         7.682307   4.054274   3.94476 C.2        1 UNL1     0.0115
     6 C         7.98582   4.029599   5.46811 C.3        1 UNL1     -0.0348
     7 C         9.17748   3.746357   3.448139 C.2        1 UNL1     0.2441
     8 O         10.037099   4.611095   3.349092 O.2        1 UNL1     -0.2702
     9 N         9.507721   2.381407   3.384866 N.am        1 UNL1     -0.2772
     10 C         9.167407   1.861422   2.157216 C.2        1 UNL1     0.1049
     11 C         7.906925   1.496134   2.008992 C.2        1 UNL1     0.0801
     12 C         9.375788   2.278457   -0.300424 C.ar        1 UNL1     0.0753
     13 C         7.960685   2.077164   -0.375091 C.ar        1 UNL1     0.0305
     14 C         7.202053   1.549865   0.756936 C.2        1 UNL1     0.0924
     15 N         6.935928   1.351117   2.926959 N.pl3        1 UNL1     -0.3170
     16 C         5.795388   0.767897   2.271766 C.3        1 UNL1     0.1275
     17 N         5.918477   1.210144   0.834063 N.2        1 UNL1     -0.2557
     18 C         5.999832   -0.74402   2.268735 C.3        1 UNL1     0.0016
     19 C         6.207033   -1.20963   3.701169 C.3        1 UNL1     0.0026
     20 N         5.037552   -0.840616   4.486771 N.3        1 UNL1     -0.3018
     21 C         4.723158   0.589545   4.49954 C.3        1 UNL1     0.0026
     22 C         4.514414   1.034902   3.0511 C.3        1 UNL1     0.0016
     23 C         4.998261   -1.493251   5.780281 C.3        1 UNL1     0.0012
     24 C         4.170126   -0.665962   6.776043 C.3        1 UNL1     -0.0339
     25 C         4.962156   0.544587   7.296923 C.3        1 UNL1     -0.0615
     26 C         2.858492   -0.243092   6.137625 C.3        1 UNL1     -0.0615
     27 C         10.109693   2.665979   -1.419052 C.ar        1 UNL1     0.1347
     28 C         9.547341   2.8433   -2.670598 C.ar        1 UNL1     0.0342
     29 C         8.145445   2.687229   -2.709256 C.ar        1 UNL1     0.1435
     30 C         7.392185   2.334549   -1.588794 C.ar        1 UNL1     0.0774
     31 O         7.464681   2.719225   -3.875679 O.3        1 UNL1     -0.4436
     32 C         6.21661   2.072141   -3.585033 C.3        1 UNL1     0.3143
     33 C         6.038098   2.210609   -2.086643 C.2        1 UNL1     0.2504
     34 C         10.301405   3.010741   -3.960347 C.3        1 UNL1     -0.0327
     35 O         5.181182   2.847125   -4.201913 O.2        1 UNL1     -0.4528
     36 C         2.422539   0.390417   -5.075162 C.3        1 UNL1     0.0854
     37 C         1.627707   -0.591927   -4.131359 C.3        1 UNL1     0.0236
     38 C         0.032328   -0.438467   -4.185777 C.3        1 UNL1     0.1131
     39 C         -0.625273   0.990128   -4.015636 C.3        1 UNL1     0.0200
     40 C         -0.074431   2.039397   -2.841735 C.3        1 UNL1     0.0661
     41 C         0.164193   1.66268   -1.205046 C.3        1 UNL1     0.0091
     42 C         1.392818   2.30405   -0.00316 C.3        1 UNL1     0.0661
     43 C         10.049702   1.974113   0.986228 C.2        1 UNL1     0.2131
     44 O         11.237725   1.724484   1.081216 O.2        1 UNL1     -0.2851
     45 O         11.475389   2.884833   -1.250485 O.3        1 UNL1     -0.5056
     46 O         5.008872   2.235514   -1.449518 O.2        1 UNL1     -0.2836
     47 C         1.891079   4.887334   0.439772 C.3        1 UNL1     -0.0566
     48 O         0.392451   2.543163   1.065112 O.3        1 UNL1     -0.3909
     49 C         0.128523   0.159689   -1.04 C.3        1 UNL1     -0.0577
     50 O         1.010378   2.806329   -3.324154 O.3        1 UNL1     -0.3910
     51 O         1.656398   1.388478   -5.711035 O.3        1 UNL1     -0.3753
     52 C         2.391909   -0.859143   -2.793622 C.3        1 UNL1     -0.0564
     53 O         -0.703309   -1.590587   -3.566275 O.3        1 UNL1     -0.4608
     54 C         -1.614606   -2.388854   -4.206774 C.2        1 UNL1     0.3042
     55 O         -1.394771   -3.20337   -5.10236 O.2        1 UNL1     -0.2512
     56 C         -3.013135   -2.250568   -3.676014 C.3        1 UNL1     0.0332
     57 C         -0.884174   1.57936   -5.47986 C.3        1 UNL1     -0.0567
     58 C         6.408901   0.576605   -3.928433 C.3        1 UNL1     0.0210
     59 C         0.89064   2.208758   -4.829775 C.3        1 UNL1     0.0372
     60 C         3.578326   1.07774   -4.43727 C.2        1 UNL1     -0.0208
     61 C         3.9612   2.35423   -4.489464 C.2        1 UNL1     0.0882
     62 H         3.229194   3.393373   -0.309792 H        1 UNL1     0.0365
     63 H         4.959743   3.824173   0.685114 H        1 UNL1     0.0576
     64 H         4.456695   4.135128   3.709519 H        1 UNL1     0.0615
     65 H         7.051127   4.172779   1.970161 H        1 UNL1     0.0622
     66 H         2.849593   -0.258779   -5.852475 H        1 UNL1     0.0645
     67 H         1.768831   -1.583161   -4.596222 H        1 UNL1     0.0362
     68 H         -0.143588   -0.717452   -5.235893 H        1 UNL1     0.0741
     69 H         -1.666872   0.864586   -3.751592 H        1 UNL1     0.0359
     70 H         -0.922301   2.750065   -2.808143 H        1 UNL1     0.0600
     71 H         -0.82383   1.949594   -0.794623 H        1 UNL1     0.0348
     72 H         1.353684   3.040413   -0.818975 H        1 UNL1     0.0602
     73 H         4.205285   0.354024   -3.978569 H        1 UNL1     0.0628
     74 H         3.351348   3.165089   -4.889248 H        1 UNL1     0.1022
     75 H         7.313931   4.735638   6.013186 H        1 UNL1     0.0279
     76 H         7.805034   3.089052   5.983627 H        1 UNL1     0.0279
     77 H         8.976227   4.441587   5.711133 H        1 UNL1     0.0279
     78 H         8.982595   1.869372   4.090656 H        1 UNL1     0.1553
     79 H         7.109577   1.248589   3.909948 H        1 UNL1     0.1484
     80 H         5.123503   -1.222388   1.814888 H        1 UNL1     0.0317
     81 H         6.862225   -1.021026   1.652945 H        1 UNL1     0.0317
     82 H         7.12536   -0.789406   4.137058 H        1 UNL1     0.0428
     83 H         6.352638   -2.290002   3.675738 H        1 UNL1     0.0428
     84 H         3.796431   0.830212   5.029699 H        1 UNL1     0.0428
     85 H         5.49117   1.172225   5.026759 H        1 UNL1     0.0428
     86 H         4.157829   2.046644   3.107789 H        1 UNL1     0.0317
     87 H         3.669227   0.492246   2.610328 H        1 UNL1     0.0317
     88 H         4.517539   -2.472211   5.654431 H        1 UNL1     0.0429
     89 H         6.009674   -1.678604   6.164289 H        1 UNL1     0.0429
     90 H         3.897749   -1.2984   7.629299 H        1 UNL1     0.0308
     91 H         4.591826   1.478499   6.863604 H        1 UNL1     0.0233
     92 H         4.902026   0.605927   8.386065 H        1 UNL1     0.0233
     93 H         6.0295   0.481795   7.052649 H        1 UNL1     0.0233
     94 H         2.054931   -0.255278   6.88192 H        1 UNL1     0.0233
     95 H         2.943198   0.775853   5.749631 H        1 UNL1     0.0233
     96 H         2.580181   -0.911038   5.31765 H        1 UNL1     0.0233
     97 H         10.700756   4.014432   -4.071496 H        1 UNL1     0.0280
     98 H         11.164173   2.335038   -4.026016 H        1 UNL1     0.0280
     99 H         9.628303   2.810589   -4.810034 H        1 UNL1     0.0280
     100 H         12.023396   2.172209   -1.528834 H        1 UNL1     0.2922
     101 H         2.599177   5.694223   0.252201 H        1 UNL1     0.0236
     102 H         1.226528   5.111924   1.273388 H        1 UNL1     0.0236
     103 H         1.235923   4.878088   -0.447289 H        1 UNL1     0.0236
     104 H         0.755305   3.227232   1.66123 H        1 UNL1     0.2098
     105 H         -0.69399   -0.329369   -1.555854 H        1 UNL1     0.0234
     106 H         1.068187   -0.345369   -1.263329 H        1 UNL1     0.0234
     107 H         0.0   -0.0   0.0 H        1 UNL1     0.0234
     108 H         1.64438   2.186575   -3.733684 H        1 UNL1     0.2098
     109 H         3.222469   -0.155791   -2.641377 H        1 UNL1     0.0234
     110 H         1.737909   -0.849545   -1.915024 H        1 UNL1     0.0234
     111 H         2.843453   -1.860054   -2.77844 H        1 UNL1     0.0234
     112 H         -3.511957   -1.404051   -4.157609 H        1 UNL1     0.0342
     113 H         -3.590278   -3.165762   -3.799171 H        1 UNL1     0.0342
     114 H         -2.952207   -2.03774   -2.599837 H        1 UNL1     0.0342
     115 H         -1.46423   0.884741   -6.102938 H        1 UNL1     0.0234
     116 H         -1.404458   2.539208   -5.486537 H        1 UNL1     0.0234
     117 H         0.0358   1.686474   -6.079958 H        1 UNL1     0.0234
     118 H         7.007867   0.049647   -3.165175 H        1 UNL1     0.0309
     119 H         5.463568   0.043873   -4.072462 H        1 UNL1     0.0309
     120 H         6.984397   0.427206   -4.848537 H        1 UNL1     0.0309
     121 H         1.299126   3.217698   -4.880153 H        1 UNL1     0.0524
     122 H         -0.170015   2.264852   -5.126255 H        1 UNL1     0.0524
     123 H         0.953151   1.82936   -3.813781 H        1 UNL1     0.0524
@<TRIPOS>BOND
     1     1     2    1
     2     1    42    1
     3     2     3    2
     4     3     4    1
     5     4     5    2
     6     5     7    1
     7     6    75    1
     8     6    76    1
     9     6    77    1
    10     7     9   am
    11     9    10    1
    12    10    11    2
    13    10    43    1
    14    11    14    1
    15    11    15    1
    16    12    13   ar
    17    12    27   ar
    18    12    43    1
    19    13    14    1
    20    13    30   ar
    21    14    17    2
    22    15    16    1
    23    16    17    1
    24    16    18    1
    25    16    22    1
    26    18    19    1
    27    19    20    1
    28    20    21    1
    29    21    22    1
    30    23    24    1
    31    23    88    1
    32    23    89    1
    33    24    25    1
    34    24    26    1
    35    24    90    1
    36    25    91    1
    37    25    92    1
    38    25    93    1
    39    26    94    1
    40    26    95    1
    41    26    96    1
    42    27    28   ar
    43    28    29   ar
    44    29    30   ar
    45    29    31    1
    46    30    33    1
    47    31    32    1
    48    32    33    1
    49    32    35    1
    50    34    97    1
    51    34    98    1
    52    34    99    1
    53    35    61    1
    54    36    37    1
    55    36    60    1
    56    37    38    1
    57    38    39    1
    58    39    40    1
    59    40    41    1
    60    41    42    1
    61    45   100    1
    62    47   101    1
    63    47   102    1
    64    47   103    1
    65    48   104    1
    66    49   105    1
    67    49   106    1
    68    49   107    1
    69    50   108    1
    70    51    59    1
    71    52   109    1
    72    52   110    1
    73    52   111    1
    74    53    54    1
    75    54    55    2
    76    54    56    1
    77    56   112    1
    78    56   113    1
    79    56   114    1
    80    57   115    1
    81    57   116    1
    82    57   117    1
    83    58   118    1
    84    58   119    1
    85    58   120    1
    86    59   121    1
    87    59   122    1
    88    59   123    1
    89    60    61    2
    90     1    47    1
    91     1    62    1
    92     2    63    1
    93     3    64    1
    94     4    65    1
    95     5     6    1
    96     7     8    2
    97     9    78    1
    98    15    79    1
    99    18    80    1
   100    18    81    1
   101    19    82    1
   102    19    83    1
   103    20    23    1
   104    21    84    1
   105    21    85    1
   106    22    86    1
   107    22    87    1
   108    27    45    1
   109    28    34    1
   110    32    58    1
   111    33    46    2
   112    36    51    1
   113    36    66    1
   114    37    52    1
   115    37    67    1
   116    38    53    1
   117    38    68    1
   118    42    48    1
   119    42    72    1
   120    43    44    2
   121    60    73    1
   122    61    74    1
   123    39    69    1
   124    39    57    1
   125    40    70    1
   126    40    50    1
   127    41    71    1
   128    41    49    1
