@<TRIPOS>MOLECULE
*****
 123 128 0 0 0
SMALL
GASTEIGER

@<TRIPOS>ATOM
     1 C         0.285383   4.446723   -1.59529 C.3        1 UNL1     0.0009
     2 C         -0.814665   5.681023   -2.434001 C.2        1 UNL1     -0.0787
     3 C         -1.437871   6.196147   -3.634962 C.2        1 UNL1     -0.0649
     4 C         -2.578412   7.440714   -3.763712 C.2        1 UNL1     -0.0542
     5 C         -3.582756   8.015143   -4.581271 C.2        1 UNL1     0.0115
     6 C         -4.216723   7.987712   -5.999247 C.3        1 UNL1     -0.0348
     7 C         -4.647905   9.015252   -3.916267 C.2        1 UNL1     0.2441
     8 O         -4.58133   10.23126   -4.032099 O.2        1 UNL1     -0.2702
     9 N         -5.804625   8.394419   -3.413559 N.am        1 UNL1     -0.2772
     10 C         -5.608933   7.997456   -2.110698 C.2        1 UNL1     0.1049
     11 C         -4.993763   6.84122   -1.940685 C.2        1 UNL1     0.0801
     12 C         -4.781794   8.807452   0.106751 C.ar        1 UNL1     0.0753
     13 C         -3.969947   7.629336   0.146182 C.ar        1 UNL1     0.0305
     14 C         -4.149171   6.544055   -0.815636 C.2        1 UNL1     0.0924
     15 N         -4.706636   5.876356   -2.831259 N.pl3        1 UNL1     -0.3170
     16 C         -4.184534   4.749305   -2.105022 C.3        1 UNL1     0.1275
     17 N         -3.562508   5.351613   -0.868886 N.2        1 UNL1     -0.2557
     18 C         -5.37782   3.930206   -1.622481 C.3        1 UNL1     0.0016
     19 C         -6.232417   3.561175   -2.824592 C.3        1 UNL1     0.0026
     20 N         -5.418114   2.799079   -3.761155 N.3        1 UNL1     -0.3018
     21 C         -4.212328   3.481666   -4.234994 C.3        1 UNL1     0.0026
     22 C         -3.366528   3.83902   -3.011551 C.3        1 UNL1     0.0016
     23 C         -6.203336   2.146818   -4.79005 C.3        1 UNL1     0.0012
     24 C         -7.704922   2.317301   -4.510886 C.3        1 UNL1     -0.0339
     25 C         -8.24729   3.617647   -5.12651 C.3        1 UNL1     -0.0615
     26 C         -8.468381   1.102291   -5.008543 C.3        1 UNL1     -0.0615
     27 C         -4.687882   9.782172   1.097317 C.ar        1 UNL1     0.1347
     28 C         -3.850742   9.671232   2.193191 C.ar        1 UNL1     0.0342
     29 C         -3.02576   8.526458   2.185379 C.ar        1 UNL1     0.1435
     30 C         -3.083006   7.559365   1.181052 C.ar        1 UNL1     0.0774
     31 O         -2.235707   8.219938   3.237457 O.3        1 UNL1     -0.4436
     32 C         -1.946211   6.822848   3.078694 C.3        1 UNL1     0.3143
     33 C         -2.141411   6.543122   1.602258 C.2        1 UNL1     0.2504
     34 C         -3.877517   10.546302   3.415335 C.3        1 UNL1     -0.0327
     35 O         -0.55216   6.64241   3.356752 O.2        1 UNL1     -0.4528
     36 C         -0.216929   3.131746   4.760658 C.3        1 UNL1     0.0854
     37 C         -0.639665   1.756094   4.115371 C.3        1 UNL1     0.0236
     38 C         0.53401   0.667969   4.014297 C.3        1 UNL1     0.1131
     39 C         1.921807   1.067699   3.368924 C.3        1 UNL1     0.0200
     40 C         1.97296   1.971379   1.967788 C.3        1 UNL1     0.0661
     41 C         1.104074   1.651044   0.546509 C.3        1 UNL1     0.0091
     42 C         0.415139   2.795748   -0.71064 C.3        1 UNL1     0.0661
     43 C         -5.791053   8.914751   -0.975904 C.2        1 UNL1     0.2131
     44 O         -6.774788   9.62941   -0.910592 O.2        1 UNL1     -0.2851
     45 O         -5.480553   10.919837   0.960097 O.3        1 UNL1     -0.5056
     46 O         -1.620032   5.688012   0.92196 O.2        1 UNL1     -0.2836
     47 C         1.775763   4.76168   -1.894544 C.3        1 UNL1     -0.0566
     48 O         0.949665   2.032445   -1.864229 O.3        1 UNL1     -0.3909
     49 C         0.02929   0.631407   0.850933 C.3        1 UNL1     -0.0577
     50 O         1.927477   3.353333   2.260802 O.3        1 UNL1     -0.3910
     51 O         1.161182   3.299587   5.005752 O.3        1 UNL1     -0.3753
     52 C         -1.696377   1.946919   2.978755 C.3        1 UNL1     -0.0564
     53 O         0.042011   -0.721688   3.733024 O.3        1 UNL1     -0.4608
     54 C         0.167219   -1.383115   2.539387 C.2        1 UNL1     0.3042
     55 O         -0.464413   -2.369308   2.162154 O.2        1 UNL1     -0.2512
     56 C         1.162797   -0.755642   1.605678 C.3        1 UNL1     0.0332
     57 C         2.905788   1.482517   4.559672 C.3        1 UNL1     -0.0567
     58 C         -3.026911   6.058577   3.878386 C.3        1 UNL1     0.0210
     59 C         2.011171   2.409926   4.283335 C.3        1 UNL1     0.0372
     60 C         -0.671401   4.339915   4.01975 C.2        1 UNL1     -0.0208
     61 C         -0.014981   5.456275   3.701005 C.2        1 UNL1     0.0882
     62 H         0.052234   4.920691   -0.634192 H        1 UNL1     0.0365
     63 H         -1.058371   6.338469   -1.596839 H        1 UNL1     0.0576
     64 H         -1.336268   5.687158   -4.596062 H        1 UNL1     0.0615
     65 H         -2.5437   7.928218   -2.785643 H        1 UNL1     0.0622
     66 H         -0.740606   3.155982   5.726692 H        1 UNL1     0.0645
     67 H         -1.30006   1.297004   4.871462 H        1 UNL1     0.0362
     68 H         0.741681   0.521396   5.085237 H        1 UNL1     0.0741
     69 H         2.447969   0.165047   3.088243 H        1 UNL1     0.0359
     70 H         3.020432   1.788052   1.660779 H        1 UNL1     0.0600
     71 H         1.843901   1.030946   0.003288 H        1 UNL1     0.0348
     72 H         1.180043   3.368179   -0.166067 H        1 UNL1     0.0602
     73 H         -1.717104   4.272093   3.849007 H        1 UNL1     0.0628
     74 H         1.064395   5.58374   3.790098 H        1 UNL1     0.1022
     75 H         -3.925328   8.898077   -6.576619 H        1 UNL1     0.0279
     76 H         -3.899442   7.181636   -6.657004 H        1 UNL1     0.0279
     77 H         -5.31195   8.086205   -5.977391 H        1 UNL1     0.0279
     78 H         -6.010434   7.560787   -3.960165 H        1 UNL1     0.1553
     79 H         -5.161777   5.786297   -3.721017 H        1 UNL1     0.1484
     80 H         -5.011422   3.037   -1.10219 H        1 UNL1     0.0317
     81 H         -5.971748   4.494763   -0.895723 H        1 UNL1     0.0317
     82 H         -6.662318   4.451257   -3.307138 H        1 UNL1     0.0428
     83 H         -7.078421   2.979157   -2.457736 H        1 UNL1     0.0428
     84 H         -3.578048   2.858957   -4.873534 H        1 UNL1     0.0428
     85 H         -4.45433   4.349315   -4.86423 H        1 UNL1     0.0428
     86 H         -2.438139   4.213893   -3.400848 H        1 UNL1     0.0317
     87 H         -3.069274   2.925735   -2.481789 H        1 UNL1     0.0317
     88 H         -5.970227   2.623425   -5.751195 H        1 UNL1     0.0429
     89 H         -5.935863   1.086407   -4.883653 H        1 UNL1     0.0429
     90 H         -7.867333   2.349821   -3.427014 H        1 UNL1     0.0308
     91 H         -8.871565   4.164932   -4.413866 H        1 UNL1     0.0233
     92 H         -7.427478   4.261554   -5.453468 H        1 UNL1     0.0233
     93 H         -8.864421   3.433744   -6.014297 H        1 UNL1     0.0233
     94 H         -9.514391   1.365556   -5.19931 H        1 UNL1     0.0233
     95 H         -8.033779   0.746483   -5.946883 H        1 UNL1     0.0233
     96 H         -8.44446   0.289098   -4.277713 H        1 UNL1     0.0233
     97 H         -4.108318   9.983174   4.314694 H        1 UNL1     0.0280
     98 H         -2.907998   11.026395   3.601878 H        1 UNL1     0.0280
     99 H         -4.643457   11.32936   3.291838 H        1 UNL1     0.0280
     100 H         -6.212713   10.818953   0.377529 H        1 UNL1     0.2922
     101 H         1.968496   4.648426   -2.961166 H        1 UNL1     0.0236
     102 H         2.467417   4.17638   -1.289547 H        1 UNL1     0.0236
     103 H         2.029371   5.812096   -1.674312 H        1 UNL1     0.0236
     104 H         1.419223   2.663918   -2.443649 H        1 UNL1     0.2098
     105 H         0.232779   0.010049   1.719448 H        1 UNL1     0.0234
     106 H         -0.980941   1.03693   0.904895 H        1 UNL1     0.0234
     107 H         -0.0   0.0   0.0 H        1 UNL1     0.0234
     108 H         1.062448   3.686697   1.953619 H        1 UNL1     0.2098
     109 H         -1.357778   2.656377   2.210816 H        1 UNL1     0.0234
     110 H         -1.991679   1.005464   2.503146 H        1 UNL1     0.0234
     111 H         -2.638668   2.356188   3.36674 H        1 UNL1     0.0234
     112 H         0.89605   -0.983682   0.569247 H        1 UNL1     0.0342
     113 H         1.248004   0.318988   1.759799 H        1 UNL1     0.0342
     114 H         2.147721   -1.199694   1.805447 H        1 UNL1     0.0342
     115 H         2.352963   1.805933   5.452406 H        1 UNL1     0.0234
     116 H         3.590205   0.689223   4.866766 H        1 UNL1     0.0234
     117 H         3.504633   2.383553   4.341819 H        1 UNL1     0.0234
     118 H         -3.54882   5.308835   3.258302 H        1 UNL1     0.0309
     119 H         -2.632634   5.569942   4.775038 H        1 UNL1     0.0309
     120 H         -3.837204   6.711681   4.22042 H        1 UNL1     0.0309
     121 H         1.460648   2.065819   3.408195 H        1 UNL1     0.0524
     122 H         2.928184   2.906357   3.924614 H        1 UNL1     0.0524
     123 H         2.28863   1.565304   4.907615 H        1 UNL1     0.0524
@<TRIPOS>BOND
     1     1     2    1
     2     1    42    1
     3     2     3    2
     4     3     4    1
     5     4     5    2
     6     5     7    1
     7     6    75    1
     8     6    76    1
     9     6    77    1
    10     7     9   am
    11     9    10    1
    12    10    11    2
    13    10    43    1
    14    11    14    1
    15    11    15    1
    16    12    13   ar
    17    12    27   ar
    18    12    43    1
    19    13    14    1
    20    13    30   ar
    21    14    17    2
    22    15    16    1
    23    16    17    1
    24    16    18    1
    25    16    22    1
    26    18    19    1
    27    19    20    1
    28    20    21    1
    29    21    22    1
    30    23    24    1
    31    23    88    1
    32    23    89    1
    33    24    25    1
    34    24    26    1
    35    24    90    1
    36    25    91    1
    37    25    92    1
    38    25    93    1
    39    26    94    1
    40    26    95    1
    41    26    96    1
    42    27    28   ar
    43    28    29   ar
    44    29    30   ar
    45    29    31    1
    46    30    33    1
    47    31    32    1
    48    32    33    1
    49    32    35    1
    50    34    97    1
    51    34    98    1
    52    34    99    1
    53    35    61    1
    54    36    37    1
    55    36    60    1
    56    37    38    1
    57    38    39    1
    58    39    40    1
    59    40    41    1
    60    41    42    1
    61    45   100    1
    62    47   101    1
    63    47   102    1
    64    47   103    1
    65    48   104    1
    66    49   105    1
    67    49   106    1
    68    49   107    1
    69    50   108    1
    70    51    59    1
    71    52   109    1
    72    52   110    1
    73    52   111    1
    74    53    54    1
    75    54    55    2
    76    54    56    1
    77    56   112    1
    78    56   113    1
    79    56   114    1
    80    57   115    1
    81    57   116    1
    82    57   117    1
    83    58   118    1
    84    58   119    1
    85    58   120    1
    86    59   121    1
    87    59   122    1
    88    59   123    1
    89    60    61    2
    90     1    47    1
    91     1    62    1
    92     2    63    1
    93     3    64    1
    94     4    65    1
    95     5     6    1
    96     7     8    2
    97     9    78    1
    98    15    79    1
    99    18    80    1
   100    18    81    1
   101    19    82    1
   102    19    83    1
   103    20    23    1
   104    21    84    1
   105    21    85    1
   106    22    86    1
   107    22    87    1
   108    27    45    1
   109    28    34    1
   110    32    58    1
   111    33    46    2
   112    36    51    1
   113    36    66    1
   114    37    52    1
   115    37    67    1
   116    38    53    1
   117    38    68    1
   118    42    48    1
   119    42    72    1
   120    43    44    2
   121    60    73    1
   122    61    74    1
   123    39    69    1
   124    39    57    1
   125    40    70    1
   126    40    50    1
   127    41    71    1
   128    41    49    1
