@<TRIPOS>MOLECULE
*****
 123 128 0 0 0
SMALL
GASTEIGER

@<TRIPOS>ATOM
     1 C         5.021368   -0.499593   -2.13261 C.3        1 UNL1     0.0009
     2 C         6.055518   -0.379879   -3.666637 C.2        1 UNL1     -0.0787
     3 C         6.750956   -1.016267   -4.765465 C.2        1 UNL1     -0.0649
     4 C         7.516993   -0.275171   -6.080881 C.2        1 UNL1     -0.0542
     5 C         7.999202   -0.462257   -7.399802 C.2        1 UNL1     0.0115
     6 C         8.299313   -1.528985   -8.488539 C.3        1 UNL1     -0.0348
     7 C         8.281264   0.826809   -8.313989 C.2        1 UNL1     0.2441
     8 O         9.404907   1.266192   -8.516214 O.2        1 UNL1     -0.2702
     9 N         7.182393   1.260269   -9.076057 N.am        1 UNL1     -0.2772
     10 C         6.414817   2.143797   -8.352506 C.2        1 UNL1     0.1049
     11 C         5.541814   1.608713   -7.518376 C.2        1 UNL1     0.0801
     12 C         6.560977   4.202788   -6.939521 C.ar        1 UNL1     0.0753
     13 C         5.780586   3.497307   -5.969008 C.ar        1 UNL1     0.0305
     14 C         5.135493   2.224726   -6.284355 C.2        1 UNL1     0.0924
     15 N         5.124734   0.336164   -7.403526 N.pl3        1 UNL1     -0.3170
     16 C         4.040411   0.312784   -6.458036 C.3        1 UNL1     0.1275
     17 N         4.304847   1.489427   -5.550672 N.2        1 UNL1     -0.2557
     18 C         2.76461   0.647617   -7.224795 C.3        1 UNL1     0.0016
     19 C         2.616095   -0.335757   -8.374798 C.3        1 UNL1     0.0026
     20 N         2.561878   -1.68597   -7.831645 N.3        1 UNL1     -0.3018
     21 C         3.719544   -2.078765   -7.025487 C.3        1 UNL1     0.0026
     22 C         3.847131   -1.080306   -5.873664 C.3        1 UNL1     0.0016
     23 C         2.124489   -2.667805   -8.803927 C.3        1 UNL1     0.0012
     24 C         0.633496   -2.480139   -9.125605 C.3        1 UNL1     -0.0339
     25 C         0.242602   -3.205581   -10.423678 C.3        1 UNL1     -0.0615
     26 C         -0.214252   -2.938832   -7.951848 C.3        1 UNL1     -0.0615
     27 C         7.071702   5.470664   -6.671625 C.ar        1 UNL1     0.1347
     28 C         6.836052   6.148577   -5.488852 C.ar        1 UNL1     0.0342
     29 C         6.106489   5.414682   -4.529529 C.ar        1 UNL1     0.1435
     30 C         5.619289   4.129423   -4.770289 C.ar        1 UNL1     0.0774
     31 O         5.701662   5.977617   -3.370121 O.3        1 UNL1     -0.4436
     32 C         4.636662   5.132559   -2.909116 C.3        1 UNL1     0.3143
     33 C         4.879527   3.791808   -3.572151 C.2        1 UNL1     0.2504
     34 C         7.135123   7.598825   -5.22916 C.3        1 UNL1     -0.0327
     35 O         4.823331   4.94168   -1.501291 O.2        1 UNL1     -0.4528
     36 C         1.350761   4.456061   -0.047498 C.3        1 UNL1     0.0854
     37 C         0.256882   3.381907   -0.41783 C.3        1 UNL1     0.0236
     38 C         -0.276775   2.507594   0.816079 C.3        1 UNL1     0.1131
     39 C         0.756704   1.793962   1.777807 C.3        1 UNL1     0.0200
     40 C         2.081406   0.996396   1.152113 C.3        1 UNL1     0.0661
     41 C         2.052241   -0.148483   -0.099292 C.3        1 UNL1     0.0091
     42 C         3.295883   -0.529274   -1.393029 C.3        1 UNL1     0.0661
     43 C         6.733317   3.577245   -8.274157 C.2        1 UNL1     0.2131
     44 O         7.015909   4.203421   -9.279534 O.2        1 UNL1     -0.2851
     45 O         7.859382   6.069368   -7.652722 O.3        1 UNL1     -0.5056
     46 O         4.554994   2.690855   -3.186881 O.2        1 UNL1     -0.2836
     47 C         5.885183   -0.981629   -0.936179 C.3        1 UNL1     -0.0566
     48 O         3.231573   -1.996013   -1.184085 O.3        1 UNL1     -0.3909
     49 C         0.706031   -0.086778   -0.785881 C.3        1 UNL1     -0.0577
     50 O         3.161576   1.888674   0.96558 O.3        1 UNL1     -0.3910
     51 O         1.847945   4.399899   1.270487 O.3        1 UNL1     -0.3753
     52 C         0.506823   2.760153   -1.830593 C.3        1 UNL1     -0.0564
     53 O         -1.540467   1.755287   0.517008 O.3        1 UNL1     -0.4608
     54 C         -1.841451   0.496105   0.96623 C.2        1 UNL1     0.3042
     55 O         -1.786583   -0.556353   0.331281 O.2        1 UNL1     -0.2512
     56 C         -2.221501   0.450694   2.418887 C.3        1 UNL1     0.0332
     57 C         0.990839   2.756396   3.033624 C.3        1 UNL1     -0.0567
     58 C         3.326779   5.735455   -3.467913 C.3        1 UNL1     0.0210
     59 C         1.515683   5.523425   2.084831 C.3        1 UNL1     0.0372
     60 C         2.532896   4.487128   -0.951241 C.2        1 UNL1     -0.0208
     61 C         3.834456   4.561201   -0.669817 C.2        1 UNL1     0.0882
     62 H         5.001942   0.595808   -2.083304 H        1 UNL1     0.0365
     63 H         6.23862   0.695969   -3.705285 H        1 UNL1     0.0576
     64 H         6.697673   -2.09499   -4.928638 H        1 UNL1     0.0615
     65 H         7.588985   0.7744   -5.783054 H        1 UNL1     0.0622
     66 H         0.844549   5.422595   -0.180188 H        1 UNL1     0.0645
     67 H         -0.636108   3.982448   -0.663758 H        1 UNL1     0.0362
     68 H         -0.736146   3.304234   1.420947 H        1 UNL1     0.0741
     69 H         0.243661   1.011588   2.321024 H        1 UNL1     0.0359
     70 H         2.371975   0.390328   2.031495 H        1 UNL1     0.0600
     71 H         1.951516   -1.079308   0.492634 H        1 UNL1     0.0348
     72 H         3.837357   0.007338   -0.600458 H        1 UNL1     0.0602
     73 H         2.201827   4.569927   -1.956619 H        1 UNL1     0.0628
     74 H         4.25865   4.427489   0.325883 H        1 UNL1     0.1022
     75 H         8.866765   -2.385924   -8.051861 H        1 UNL1     0.0279
     76 H         7.43863   -2.021422   -8.935527 H        1 UNL1     0.0279
     77 H         9.003579   -1.169757   -9.253173 H        1 UNL1     0.0279
     78 H         6.593534   0.463909   -9.310861 H        1 UNL1     0.1553
     79 H         5.2312   -0.352196   -8.125854 H        1 UNL1     0.1484
     80 H         1.910621   0.59363   -6.538824 H        1 UNL1     0.0317
     81 H         2.795501   1.673699   -7.606704 H        1 UNL1     0.0317
     82 H         3.43295   -0.235177   -9.104554 H        1 UNL1     0.0428
     83 H         1.701253   -0.077817   -8.909195 H        1 UNL1     0.0428
     84 H         3.618135   -3.066022   -6.564129 H        1 UNL1     0.0428
     85 H         4.631703   -2.160418   -7.632624 H        1 UNL1     0.0428
     86 H         4.61632   -1.472402   -5.234448 H        1 UNL1     0.0317
     87 H         2.949946   -1.118196   -5.243807 H        1 UNL1     0.0317
     88 H         2.702419   -2.517188   -9.725125 H        1 UNL1     0.0429
     89 H         2.329628   -3.689423   -8.458978 H        1 UNL1     0.0429
     90 H         0.42398   -1.410708   -9.246575 H        1 UNL1     0.0308
     91 H         0.638562   -4.225336   -10.444116 H        1 UNL1     0.0233
     92 H         -0.843712   -3.24037   -10.534668 H        1 UNL1     0.0233
     93 H         0.625181   -2.697798   -11.317335 H        1 UNL1     0.0233
     94 H         -1.228823   -3.177148   -8.289022 H        1 UNL1     0.0233
     95 H         0.215573   -3.842718   -7.511163 H        1 UNL1     0.0233
     96 H         -0.27898   -2.166413   -7.18039 H        1 UNL1     0.0233
     97 H         6.244433   8.155515   -4.953485 H        1 UNL1     0.0280
     98 H         7.842278   7.733559   -4.400285 H        1 UNL1     0.0280
     99 H         7.561205   8.056109   -6.137147 H        1 UNL1     0.0280
     100 H         8.541767   5.519852   -7.996241 H        1 UNL1     0.2922
     101 H         6.103831   -0.140826   -0.278228 H        1 UNL1     0.0236
     102 H         6.789237   -1.505972   -1.24397 H        1 UNL1     0.0236
     103 H         5.345358   -1.702266   -0.299418 H        1 UNL1     0.0236
     104 H         3.140422   -2.153451   -0.223942 H        1 UNL1     0.2098
     105 H         0.57685   0.767957   -1.445087 H        1 UNL1     0.0234
     106 H         0.412121   -1.004468   -1.295184 H        1 UNL1     0.0234
     107 H         -0.0   0.0   0.0 H        1 UNL1     0.0234
     108 H         3.815706   1.437621   0.397747 H        1 UNL1     0.2098
     109 H         0.476987   3.515186   -2.628557 H        1 UNL1     0.0234
     110 H         1.444473   2.197474   -1.893431 H        1 UNL1     0.0234
     111 H         -0.264176   2.022558   -2.090326 H        1 UNL1     0.0234
     112 H         -2.428143   -0.58155   2.717414 H        1 UNL1     0.0342
     113 H         -1.458961   0.89642   3.055837 H        1 UNL1     0.0342
     114 H         -3.145435   1.030602   2.550099 H        1 UNL1     0.0342
     115 H         1.177507   2.187562   3.954912 H        1 UNL1     0.0234
     116 H         1.818105   3.457639   2.90738 H        1 UNL1     0.0234
     117 H         0.094766   3.334452   3.317958 H        1 UNL1     0.0234
     118 H         2.701602   6.177764   -2.672601 H        1 UNL1     0.0309
     119 H         3.496997   6.484418   -4.247838 H        1 UNL1     0.0309
     120 H         2.671637   4.978285   -3.912424 H        1 UNL1     0.0309
     121 H         2.280836   5.609555   2.855855 H        1 UNL1     0.0524
     122 H         1.511634   6.467083   1.514277 H        1 UNL1     0.0524
     123 H         0.539356   5.382273   2.539756 H        1 UNL1     0.0524
@<TRIPOS>BOND
     1     1     2    1
     2     1    42    1
     3     2     3    2
     4     3     4    1
     5     4     5    2
     6     5     7    1
     7     6    75    1
     8     6    76    1
     9     6    77    1
    10     7     9   am
    11     9    10    1
    12    10    11    2
    13    10    43    1
    14    11    14    1
    15    11    15    1
    16    12    13   ar
    17    12    27   ar
    18    12    43    1
    19    13    14    1
    20    13    30   ar
    21    14    17    2
    22    15    16    1
    23    16    17    1
    24    16    18    1
    25    16    22    1
    26    18    19    1
    27    19    20    1
    28    20    21    1
    29    21    22    1
    30    23    24    1
    31    23    88    1
    32    23    89    1
    33    24    25    1
    34    24    26    1
    35    24    90    1
    36    25    91    1
    37    25    92    1
    38    25    93    1
    39    26    94    1
    40    26    95    1
    41    26    96    1
    42    27    28   ar
    43    28    29   ar
    44    29    30   ar
    45    29    31    1
    46    30    33    1
    47    31    32    1
    48    32    33    1
    49    32    35    1
    50    34    97    1
    51    34    98    1
    52    34    99    1
    53    35    61    1
    54    36    37    1
    55    36    60    1
    56    37    38    1
    57    38    39    1
    58    39    40    1
    59    40    41    1
    60    41    42    1
    61    45   100    1
    62    47   101    1
    63    47   102    1
    64    47   103    1
    65    48   104    1
    66    49   105    1
    67    49   106    1
    68    49   107    1
    69    50   108    1
    70    51    59    1
    71    52   109    1
    72    52   110    1
    73    52   111    1
    74    53    54    1
    75    54    55    2
    76    54    56    1
    77    56   112    1
    78    56   113    1
    79    56   114    1
    80    57   115    1
    81    57   116    1
    82    57   117    1
    83    58   118    1
    84    58   119    1
    85    58   120    1
    86    59   121    1
    87    59   122    1
    88    59   123    1
    89    60    61    2
    90     1    47    1
    91     1    62    1
    92     2    63    1
    93     3    64    1
    94     4    65    1
    95     5     6    1
    96     7     8    2
    97     9    78    1
    98    15    79    1
    99    18    80    1
   100    18    81    1
   101    19    82    1
   102    19    83    1
   103    20    23    1
   104    21    84    1
   105    21    85    1
   106    22    86    1
   107    22    87    1
   108    27    45    1
   109    28    34    1
   110    32    58    1
   111    33    46    2
   112    36    51    1
   113    36    66    1
   114    37    52    1
   115    37    67    1
   116    38    53    1
   117    38    68    1
   118    42    48    1
   119    42    72    1
   120    43    44    2
   121    60    73    1
   122    61    74    1
   123    39    69    1
   124    39    57    1
   125    40    70    1
   126    40    50    1
   127    41    71    1
   128    41    49    1
