@<TRIPOS>MOLECULE
*****
 123 128 0 0 0
SMALL
GASTEIGER

@<TRIPOS>ATOM
     1 C         3.015955   3.22457   3.241208 C.3        1 UNL1     0.0009
     2 C         4.007502   4.786458   3.36112 C.2        1 UNL1     -0.0787
     3 C         5.28724   5.462954   3.386994 C.2        1 UNL1     -0.0649
     4 C         5.582935   7.129875   3.404201 C.2        1 UNL1     -0.0542
     5 C         6.540717   8.141843   3.147971 C.2        1 UNL1     0.0115
     6 C         8.037874   8.402405   2.825554 C.3        1 UNL1     -0.0348
     7 C         6.040902   9.656518   2.966497 C.2        1 UNL1     0.2441
     8 O         6.142625   10.500693   3.846012 O.2        1 UNL1     -0.2702
     9 N         5.719024   10.016339   1.646242 N.am        1 UNL1     -0.2772
     10 C         4.402467   9.721766   1.375637 C.2        1 UNL1     0.1049
     11 C         4.144665   8.473757   1.02889 C.2        1 UNL1     0.0801
     12 C         2.084096   9.991278   2.275555 C.ar        1 UNL1     0.0753
     13 C         1.925912   8.583292   2.072669 C.ar        1 UNL1     0.0305
     14 C         2.906233   7.803781   1.320084 C.2        1 UNL1     0.0924
     15 N         4.984244   7.480254   0.69038 N.pl3        1 UNL1     -0.3170
     16 C         4.190436   6.370983   0.232516 C.3        1 UNL1     0.1275
     17 N         2.873527   6.525767   0.95329 N.2        1 UNL1     -0.2557
     18 C         3.894443   6.606386   -1.245549 C.3        1 UNL1     0.0016
     19 C         5.2121   6.782316   -1.983396 C.3        1 UNL1     0.0026
     20 N         6.017514   5.583672   -1.794749 N.3        1 UNL1     -0.3018
     21 C         6.303342   5.239787   -0.400326 C.3        1 UNL1     0.0026
     22 C         4.965942   5.063183   0.320831 C.3        1 UNL1     0.0016
     23 C         7.154154   5.521044   -2.691839 C.3        1 UNL1     0.0012
     24 C         6.688327   5.270663   -4.134777 C.3        1 UNL1     -0.0339
     25 C         6.56371   6.585697   -4.921678 C.3        1 UNL1     -0.0615
     26 C         7.626386   4.294243   -4.822839 C.3        1 UNL1     -0.0615
     27 C         1.088419   10.748562   2.888145 C.ar        1 UNL1     0.1347
     28 C         -0.12048   10.21847   3.302411 C.ar        1 UNL1     0.0342
     29 C         -0.234006   8.821733   3.136879 C.ar        1 UNL1     0.1435
     30 C         0.769753   8.044339   2.557788 C.ar        1 UNL1     0.0774
     31 O         -1.392084   8.173863   3.390109 O.3        1 UNL1     -0.4436
     32 C         -1.275378   6.931569   2.680209 C.3        1 UNL1     0.3143
     33 C         0.214269   6.707765   2.515656 C.2        1 UNL1     0.2504
     34 C         -1.326756   11.005274   3.733617 C.3        1 UNL1     -0.0327
     35 O         -1.759205   5.89841   3.547242 O.2        1 UNL1     -0.4528
     36 C         -3.189448   3.216634   1.273353 C.3        1 UNL1     0.0854
     37 C         -2.484833   2.415621   0.111708 C.3        1 UNL1     0.0236
     38 C         -2.558647   0.819621   0.249839 C.3        1 UNL1     0.1131
     39 C         -2.129912   0.1283   1.606501 C.3        1 UNL1     0.0200
     40 C         -0.754429   0.623947   2.409506 C.3        1 UNL1     0.0661
     41 C         0.781944   0.823658   1.718648 C.3        1 UNL1     0.0091
     42 C         2.125655   2.00424   2.126166 C.3        1 UNL1     0.0661
     43 C         3.30578   10.63447   1.73145 C.2        1 UNL1     0.2131
     44 O         3.387286   11.824184   1.485129 O.2        1 UNL1     -0.2851
     45 O         1.340495   12.104145   3.088872 O.3        1 UNL1     -0.5056
     46 O         0.810525   5.660563   2.398613 O.2        1 UNL1     -0.2836
     47 C         3.087287   2.436649   4.576901 C.3        1 UNL1     -0.0566
     48 O         3.187649   0.969239   2.133806 O.3        1 UNL1     -0.3909
     49 C         0.644715   0.814137   0.21247 C.3        1 UNL1     -0.0577
     50 O         -1.040471   1.70607   3.27259 O.3        1 UNL1     -0.3910
     51 O         -3.639094   2.448562   2.366659 O.3        1 UNL1     -0.3753
     52 C         -1.202867   3.146834   -0.404855 C.3        1 UNL1     -0.0564
     53 O         -2.203484   0.09046   -1.0129 O.3        1 UNL1     -0.4608
     54 C         -1.819071   -1.222538   -1.0916 C.2        1 UNL1     0.3042
     55 O         -0.708031   -1.658873   -1.389993 O.2        1 UNL1     -0.2512
     56 C         -2.901476   -2.190227   -0.705994 C.3        1 UNL1     0.0332
     57 C         -3.455869   -0.10093   2.471061 C.3        1 UNL1     -0.0567
     58 C         -1.901958   7.164159   1.285638 C.3        1 UNL1     0.0210
     59 C         -4.759252   2.994029   3.062056 C.3        1 UNL1     0.0372
     60 C         -2.391478   4.3395   1.836892 C.2        1 UNL1     -0.0208
     61 C         -2.17749   4.697451   3.103709 C.2        1 UNL1     0.0882
     62 H         2.099679   3.825864   3.281127 H        1 UNL1     0.0365
     63 H         3.214918   5.518259   3.53067 H        1 UNL1     0.0576
     64 H         6.223354   4.923235   3.227302 H        1 UNL1     0.0615
     65 H         4.609625   7.564709   3.647243 H        1 UNL1     0.0622
     66 H         -4.065944   3.678815   0.797758 H        1 UNL1     0.0645
     67 H         -3.132125   2.590185   -0.765275 H        1 UNL1     0.0362
     68 H         -3.648288   0.679362   0.182513 H        1 UNL1     0.0741
     69 H         -1.929348   -0.917585   1.415962 H        1 UNL1     0.0359
     70 H         -0.607774   -0.238927   3.087002 H        1 UNL1     0.0600
     71 H         1.209335   -0.1813   1.903995 H        1 UNL1     0.0348
     72 H         1.471079   1.973205   3.009276 H        1 UNL1     0.0602
     73 H         -2.065488   4.967882   1.045618 H        1 UNL1     0.0628
     74 H         -2.42795   4.082704   3.968922 H        1 UNL1     0.1022
     75 H         8.598349   7.438729   2.760514 H        1 UNL1     0.0279
     76 H         8.25397   8.864385   1.864854 H        1 UNL1     0.0279
     77 H         8.568205   8.906653   3.646641 H        1 UNL1     0.0279
     78 H         6.292253   9.481984   0.996664 H        1 UNL1     0.1553
     79 H         5.932464   7.627976   0.39714 H        1 UNL1     0.1484
     80 H         3.327089   5.753294   -1.636841 H        1 UNL1     0.0317
     81 H         3.263816   7.49142   -1.382205 H        1 UNL1     0.0317
     82 H         5.751681   7.679083   -1.644908 H        1 UNL1     0.0428
     83 H         4.977784   6.950705   -3.034962 H        1 UNL1     0.0428
     84 H         6.840826   4.293635   -0.2832 H        1 UNL1     0.0428
     85 H         6.959784   5.980406   0.077046 H        1 UNL1     0.0428
     86 H         5.21055   4.684463   1.295882 H        1 UNL1     0.0317
     87 H         4.399654   4.242162   -0.135609 H        1 UNL1     0.0317
     88 H         7.672251   6.488252   -2.654706 H        1 UNL1     0.0429
     89 H         7.874431   4.757816   -2.37019 H        1 UNL1     0.0429
     90 H         5.707537   4.780866   -4.115706 H        1 UNL1     0.0308
     91 H         7.511971   7.13128   -4.937225 H        1 UNL1     0.0233
     92 H         6.244131   6.392673   -5.94843 H        1 UNL1     0.0233
     93 H         5.815084   7.261188   -4.49028 H        1 UNL1     0.0233
     94 H         7.413755   4.259258   -5.896804 H        1 UNL1     0.0233
     95 H         8.662895   4.618609   -4.694787 H        1 UNL1     0.0233
     96 H         7.519695   3.284604   -4.416371 H        1 UNL1     0.0233
     97 H         -2.167356   10.362054   3.97629 H        1 UNL1     0.0280
     98 H         -1.132437   11.599233   4.636229 H        1 UNL1     0.0280
     99 H         -1.634265   11.684104   2.921383 H        1 UNL1     0.0280
     100 H         0.685341   12.680574   2.736558 H        1 UNL1     0.2922
     101 H         2.467344   1.542859   4.510083 H        1 UNL1     0.0236
     102 H         2.837451   3.043606   5.44648 H        1 UNL1     0.0236
     103 H         4.102878   2.058214   4.780752 H        1 UNL1     0.0236
     104 H         3.302157   0.670943   3.05732 H        1 UNL1     0.2098
     105 H         0.19467   1.712195   -0.203179 H        1 UNL1     0.0234
     106 H         1.558825   0.565474   -0.326508 H        1 UNL1     0.0234
     107 H         0.0   0.0   -0.0 H        1 UNL1     0.0234
     108 H         -1.314662   2.458413   2.713513 H        1 UNL1     0.2098
     109 H         -0.456768   3.289349   0.389335 H        1 UNL1     0.0234
     110 H         -0.736621   2.645684   -1.259961 H        1 UNL1     0.0234
     111 H         -1.434025   4.152884   -0.779523 H        1 UNL1     0.0234
     112 H         -2.528143   -3.215967   -0.782318 H        1 UNL1     0.0342
     113 H         -3.293765   -1.99032   0.289993 H        1 UNL1     0.0342
     114 H         -3.730393   -2.079634   -1.418617 H        1 UNL1     0.0342
     115 H         -4.184579   -0.730488   1.942074 H        1 UNL1     0.0234
     116 H         -3.276268   -0.555928   3.447161 H        1 UNL1     0.0234
     117 H         -4.043689   0.819901   2.627522 H        1 UNL1     0.0234
     118 H         -3.000856   7.058511   1.302 H        1 UNL1     0.0309
     119 H         -1.641985   8.136145   0.854523 H        1 UNL1     0.0309
     120 H         -1.586934   6.413341   0.552741 H        1 UNL1     0.0309
     121 H         -4.455329   3.95623   3.473345 H        1 UNL1     0.0524
     122 H         -5.618423   3.174682   2.394803 H        1 UNL1     0.0524
     123 H         -5.067644   2.325513   3.860851 H        1 UNL1     0.0524
@<TRIPOS>BOND
     1     1     2    1
     2     1    42    1
     3     2     3    2
     4     3     4    1
     5     4     5    2
     6     5     7    1
     7     6    75    1
     8     6    76    1
     9     6    77    1
    10     7     9   am
    11     9    10    1
    12    10    11    2
    13    10    43    1
    14    11    14    1
    15    11    15    1
    16    12    13   ar
    17    12    27   ar
    18    12    43    1
    19    13    14    1
    20    13    30   ar
    21    14    17    2
    22    15    16    1
    23    16    17    1
    24    16    18    1
    25    16    22    1
    26    18    19    1
    27    19    20    1
    28    20    21    1
    29    21    22    1
    30    23    24    1
    31    23    88    1
    32    23    89    1
    33    24    25    1
    34    24    26    1
    35    24    90    1
    36    25    91    1
    37    25    92    1
    38    25    93    1
    39    26    94    1
    40    26    95    1
    41    26    96    1
    42    27    28   ar
    43    28    29   ar
    44    29    30   ar
    45    29    31    1
    46    30    33    1
    47    31    32    1
    48    32    33    1
    49    32    35    1
    50    34    97    1
    51    34    98    1
    52    34    99    1
    53    35    61    1
    54    36    37    1
    55    36    60    1
    56    37    38    1
    57    38    39    1
    58    39    40    1
    59    40    41    1
    60    41    42    1
    61    45   100    1
    62    47   101    1
    63    47   102    1
    64    47   103    1
    65    48   104    1
    66    49   105    1
    67    49   106    1
    68    49   107    1
    69    50   108    1
    70    51    59    1
    71    52   109    1
    72    52   110    1
    73    52   111    1
    74    53    54    1
    75    54    55    2
    76    54    56    1
    77    56   112    1
    78    56   113    1
    79    56   114    1
    80    57   115    1
    81    57   116    1
    82    57   117    1
    83    58   118    1
    84    58   119    1
    85    58   120    1
    86    59   121    1
    87    59   122    1
    88    59   123    1
    89    60    61    2
    90     1    47    1
    91     1    62    1
    92     2    63    1
    93     3    64    1
    94     4    65    1
    95     5     6    1
    96     7     8    2
    97     9    78    1
    98    15    79    1
    99    18    80    1
   100    18    81    1
   101    19    82    1
   102    19    83    1
   103    20    23    1
   104    21    84    1
   105    21    85    1
   106    22    86    1
   107    22    87    1
   108    27    45    1
   109    28    34    1
   110    32    58    1
   111    33    46    2
   112    36    51    1
   113    36    66    1
   114    37    52    1
   115    37    67    1
   116    38    53    1
   117    38    68    1
   118    42    48    1
   119    42    72    1
   120    43    44    2
   121    60    73    1
   122    61    74    1
   123    39    69    1
   124    39    57    1
   125    40    70    1
   126    40    50    1
   127    41    71    1
   128    41    49    1
