@<TRIPOS>MOLECULE
*****
 123 128 0 0 0
SMALL
GASTEIGER

@<TRIPOS>ATOM
     1 C         3.613749   -1.816578   -3.694945 C.3        1 UNL1     0.0009
     2 C         4.102445   -1.833599   -5.483219 C.2        1 UNL1     -0.0787
     3 C         4.157461   -2.506467   -6.763948 C.2        1 UNL1     -0.0649
     4 C         4.695132   -1.884463   -8.243941 C.2        1 UNL1     -0.0542
     5 C         4.653015   -2.037523   -9.651732 C.2        1 UNL1     0.0115
     6 C         4.209543   -2.985235   -10.799991 C.3        1 UNL1     -0.0348
     7 C         5.078565   -0.799523   -10.580846 C.2        1 UNL1     0.2441
     8 O         6.165745   -0.72786   -11.13711 O.2        1 UNL1     -0.2702
     9 N         4.027143   0.068296   -10.923705 N.am        1 UNL1     -0.2772
     10 C         3.881042   1.046917   -9.967526 C.2        1 UNL1     0.1049
     11 C         3.174608   0.717981   -8.901236 C.2        1 UNL1     0.0801
     12 C         5.168487   2.732985   -8.64201 C.ar        1 UNL1     0.0753
     13 C         4.525428   2.195882   -7.481577 C.ar        1 UNL1     0.0305
     14 C         3.409362   1.25902   -7.589922 C.2        1 UNL1     0.0924
     15 N         2.391513   -0.351791   -8.68015 N.pl3        1 UNL1     -0.3170
     16 C         1.712828   -0.148246   -7.427868 C.3        1 UNL1     0.1275
     17 N         2.639048   0.742639   -6.636564 N.2        1 UNL1     -0.2557
     18 C         0.468672   0.685719   -7.718178 C.3        1 UNL1     0.0016
     19 C         -0.360846   -0.029236   -8.772848 C.3        1 UNL1     0.0026
     20 N         -0.719715   -1.348357   -8.270691 N.3        1 UNL1     -0.3018
     21 C         0.411521   -2.20333   -7.905045 C.3        1 UNL1     0.0026
     22 C         1.228411   -1.467681   -6.841369 C.3        1 UNL1     0.0016
     23 C         -1.749936   -1.991734   -9.061484 C.3        1 UNL1     0.0012
     24 C         -3.100528   -1.285699   -8.863564 C.3        1 UNL1     -0.0339
     25 C         -3.648266   -0.737179   -10.191407 C.3        1 UNL1     -0.0615
     26 C         -4.088303   -2.228209   -8.198165 C.3        1 UNL1     -0.0615
     27 C         6.149571   3.715765   -8.533674 C.ar        1 UNL1     0.1347
     28 C         6.541483   4.265956   -7.326303 C.ar        1 UNL1     0.0342
     29 C         5.929931   3.687204   -6.193954 C.ar        1 UNL1     0.1435
     30 C         4.971798   2.676795   -6.284918 C.ar        1 UNL1     0.0774
     31 O         6.124495   4.188254   -4.954559 O.3        1 UNL1     -0.4436
     32 C         5.024938   3.682797   -4.182315 C.3        1 UNL1     0.3143
     33 C         4.56402   2.439567   -4.915902 C.2        1 UNL1     0.2504
     34 C         7.397257   5.489534   -7.151352 C.3        1 UNL1     -0.0327
     35 O         5.552321   3.251864   -2.921595 O.2        1 UNL1     -0.4528
     36 C         2.753357   3.733586   -0.403295 C.3        1 UNL1     0.0854
     37 C         1.293648   3.136317   -0.409704 C.3        1 UNL1     0.0236
     38 C         0.889591   2.324925   0.91322 C.3        1 UNL1     0.1131
     39 C         1.845203   1.189236   1.460289 C.3        1 UNL1     0.0200
     40 C         2.544254   0.095834   0.41232 C.3        1 UNL1     0.0661
     41 C         1.732324   -0.795361   -0.781059 C.3        1 UNL1     0.0091
     42 C         2.302935   -1.381611   -2.423044 C.3        1 UNL1     0.0661
     43 C         4.692721   2.273099   -9.970321 C.2        1 UNL1     0.2131
     44 O         4.856875   2.903274   -10.999238 O.2        1 UNL1     -0.2851
     45 O         6.758148   4.15205   -9.708717 O.3        1 UNL1     -0.5056
     46 O         4.005891   1.463316   -4.467261 O.2        1 UNL1     -0.2836
     47 C         4.572703   -2.712166   -2.865301 C.3        1 UNL1     -0.0566
     48 O         1.791998   -2.760985   -2.234926 O.3        1 UNL1     -0.3909
     49 C         0.353937   -0.204791   -0.977961 C.3        1 UNL1     -0.0577
     50 O         3.757669   0.603183   -0.105312 O.3        1 UNL1     -0.3910
     51 O         3.575509   3.339511   0.671974 O.3        1 UNL1     -0.3753
     52 C         0.864007   2.665266   -1.837453 C.3        1 UNL1     -0.0564
     53 O         -0.584928   2.07445   1.037247 O.3        1 UNL1     -0.4608
     54 C         -1.158574   0.933811   1.535046 C.2        1 UNL1     0.3042
     55 O         -1.675407   0.0178   0.896576 O.2        1 UNL1     -0.2512
     56 C         -1.06737   0.817861   3.030021 C.3        1 UNL1     0.0332
     57 C         2.775347   1.842261   2.585706 C.3        1 UNL1     -0.0567
     58 C         3.90875   4.750346   -4.259718 C.3        1 UNL1     0.0210
     59 C         3.823749   4.35704   1.640931 C.3        1 UNL1     0.0372
     60 C         3.534006   3.499623   -1.64869 C.2        1 UNL1     -0.0208
     61 C         4.79718   3.10573   -1.815975 C.2        1 UNL1     0.0882
     62 H         3.998347   -0.792328   -3.619393 H        1 UNL1     0.0365
     63 H         4.632417   -0.881795   -5.558511 H        1 UNL1     0.0576
     64 H         3.679692   -3.475896   -6.922232 H        1 UNL1     0.0615
     65 H         5.220252   -0.966722   -7.965583 H        1 UNL1     0.0622
     66 H         2.606388   4.820963   -0.339597 H        1 UNL1     0.0645
     67 H         0.640829   4.023018   -0.3313 H        1 UNL1     0.0362
     68 H         0.949175   3.137796   1.652958 H        1 UNL1     0.0741
     69 H         1.281032   0.551038   2.12724 H        1 UNL1     0.0359
     70 H         2.855661   -0.685513   1.131752 H        1 UNL1     0.0600
     71 H         1.495272   -1.713646   -0.208768 H        1 UNL1     0.0348
     72 H         3.213176   -1.164227   -1.845531 H        1 UNL1     0.0602
     73 H         2.963584   3.821872   -2.484168 H        1 UNL1     0.0628
     74 H         5.429034   2.706773   -1.021727 H        1 UNL1     0.1022
     75 H         4.542146   -4.03143   -10.595334 H        1 UNL1     0.0279
     76 H         3.138056   -3.104085   -10.944417 H        1 UNL1     0.0279
     77 H         4.725866   -2.775155   -11.748135 H        1 UNL1     0.0279
     78 H         3.153524   -0.452431   -10.965064 H        1 UNL1     0.1553
     79 H         2.02219   -0.932196   -9.410673 H        1 UNL1     0.1484
     80 H         -0.096313   0.82073   -6.787947 H        1 UNL1     0.0317
     81 H         0.741689   1.687342   -8.067268 H        1 UNL1     0.0317
     82 H         0.174383   -0.102588   -9.731004 H        1 UNL1     0.0428
     83 H         -1.24199   0.583368   -8.966115 H        1 UNL1     0.0428
     84 H         0.114091   -3.15642   -7.456754 H        1 UNL1     0.0428
     85 H         1.004126   -2.494926   -8.783172 H        1 UNL1     0.0428
     86 H         1.965363   -2.172474   -6.503501 H        1 UNL1     0.0317
     87 H         0.613779   -1.295879   -5.949288 H        1 UNL1     0.0317
     88 H         -1.466781   -1.914249   -10.119366 H        1 UNL1     0.0429
     89 H         -1.823906   -3.06121   -8.825853 H        1 UNL1     0.0429
     90 H         -2.969687   -0.448721   -8.16746 H        1 UNL1     0.0308
     91 H         -2.861801   -0.671411   -10.949199 H        1 UNL1     0.0233
     92 H         -4.456028   -1.369785   -10.566827 H        1 UNL1     0.0233
     93 H         -4.072076   0.268714   -10.084638 H        1 UNL1     0.0233
     94 H         -5.114767   -1.902484   -8.398442 H        1 UNL1     0.0233
     95 H         -3.970456   -3.238113   -8.600866 H        1 UNL1     0.0233
     96 H         -3.941195   -2.260716   -7.114989 H        1 UNL1     0.0233
     97 H         6.890187   6.263537   -6.582994 H        1 UNL1     0.0280
     98 H         8.323228   5.271985   -6.603168 H        1 UNL1     0.0280
     99 H         7.658414   5.901644   -8.139814 H        1 UNL1     0.0280
     100 H         7.062815   3.461987   -10.271403 H        1 UNL1     0.2922
     101 H         5.263736   -2.086552   -2.300734 H        1 UNL1     0.0236
     102 H         5.093211   -3.455906   -3.467717 H        1 UNL1     0.0236
     103 H         4.035192   -3.296594   -2.099978 H        1 UNL1     0.0236
     104 H         1.948841   -3.00906   -1.302816 H        1 UNL1     0.2098
     105 H         0.340256   0.726526   -1.538563 H        1 UNL1     0.0234
     106 H         -0.385436   -0.897968   -1.378911 H        1 UNL1     0.0234
     107 H         -0.0   0.0   0.0 H        1 UNL1     0.0234
     108 H         4.003647   0.04495   -0.867965 H        1 UNL1     0.2098
     109 H         0.86064   3.489761   -2.564026 H        1 UNL1     0.0234
     110 H         1.475455   1.841388   -2.22099 H        1 UNL1     0.0234
     111 H         -0.157562   2.262358   -1.840354 H        1 UNL1     0.0234
     112 H         -1.52345   -0.120811   3.359006 H        1 UNL1     0.0342
     113 H         -0.041198   0.899226   3.385258 H        1 UNL1     0.0342
     114 H         -1.639737   1.644079   3.473784 H        1 UNL1     0.0342
     115 H         3.020797   1.123963   3.380055 H        1 UNL1     0.0234
     116 H         3.716044   2.245286   2.205298 H        1 UNL1     0.0234
     117 H         2.273702   2.636828   3.164461 H        1 UNL1     0.0234
     118 H         3.754721   5.260015   -3.292496 H        1 UNL1     0.0309
     119 H         4.085678   5.501401   -5.036131 H        1 UNL1     0.0309
     120 H         2.926341   4.316434   -4.475819 H        1 UNL1     0.0309
     121 H         4.771955   4.126353   2.125746 H        1 UNL1     0.0524
     122 H         3.919111   5.355935   1.183599 H        1 UNL1     0.0524
     123 H         3.023327   4.380309   2.375013 H        1 UNL1     0.0524
@<TRIPOS>BOND
     1     1     2    1
     2     1    42    1
     3     2     3    2
     4     3     4    1
     5     4     5    2
     6     5     7    1
     7     6    75    1
     8     6    76    1
     9     6    77    1
    10     7     9   am
    11     9    10    1
    12    10    11    2
    13    10    43    1
    14    11    14    1
    15    11    15    1
    16    12    13   ar
    17    12    27   ar
    18    12    43    1
    19    13    14    1
    20    13    30   ar
    21    14    17    2
    22    15    16    1
    23    16    17    1
    24    16    18    1
    25    16    22    1
    26    18    19    1
    27    19    20    1
    28    20    21    1
    29    21    22    1
    30    23    24    1
    31    23    88    1
    32    23    89    1
    33    24    25    1
    34    24    26    1
    35    24    90    1
    36    25    91    1
    37    25    92    1
    38    25    93    1
    39    26    94    1
    40    26    95    1
    41    26    96    1
    42    27    28   ar
    43    28    29   ar
    44    29    30   ar
    45    29    31    1
    46    30    33    1
    47    31    32    1
    48    32    33    1
    49    32    35    1
    50    34    97    1
    51    34    98    1
    52    34    99    1
    53    35    61    1
    54    36    37    1
    55    36    60    1
    56    37    38    1
    57    38    39    1
    58    39    40    1
    59    40    41    1
    60    41    42    1
    61    45   100    1
    62    47   101    1
    63    47   102    1
    64    47   103    1
    65    48   104    1
    66    49   105    1
    67    49   106    1
    68    49   107    1
    69    50   108    1
    70    51    59    1
    71    52   109    1
    72    52   110    1
    73    52   111    1
    74    53    54    1
    75    54    55    2
    76    54    56    1
    77    56   112    1
    78    56   113    1
    79    56   114    1
    80    57   115    1
    81    57   116    1
    82    57   117    1
    83    58   118    1
    84    58   119    1
    85    58   120    1
    86    59   121    1
    87    59   122    1
    88    59   123    1
    89    60    61    2
    90     1    47    1
    91     1    62    1
    92     2    63    1
    93     3    64    1
    94     4    65    1
    95     5     6    1
    96     7     8    2
    97     9    78    1
    98    15    79    1
    99    18    80    1
   100    18    81    1
   101    19    82    1
   102    19    83    1
   103    20    23    1
   104    21    84    1
   105    21    85    1
   106    22    86    1
   107    22    87    1
   108    27    45    1
   109    28    34    1
   110    32    58    1
   111    33    46    2
   112    36    51    1
   113    36    66    1
   114    37    52    1
   115    37    67    1
   116    38    53    1
   117    38    68    1
   118    42    48    1
   119    42    72    1
   120    43    44    2
   121    60    73    1
   122    61    74    1
   123    39    69    1
   124    39    57    1
   125    40    70    1
   126    40    50    1
   127    41    71    1
   128    41    49    1
