@<TRIPOS>MOLECULE
*****
 123 128 0 0 0
SMALL
GASTEIGER

@<TRIPOS>ATOM
     1 C         0.909862   -0.919368   -5.323414 C.3        1 UNL1     0.0009
     2 C         1.637387   -2.073771   -6.578444 C.2        1 UNL1     -0.0787
     3 C         2.704539   -2.426111   -7.491182 C.2        1 UNL1     -0.0649
     4 C         2.872514   -3.846528   -8.397027 C.2        1 UNL1     -0.0542
     5 C         3.78225   -4.674982   -9.099253 C.2        1 UNL1     0.0115
     6 C         5.229814   -4.762101   -9.656291 C.3        1 UNL1     -0.0348
     7 C         3.363675   -6.191185   -9.420056 C.2        1 UNL1     0.2441
     8 O         2.978782   -6.556216   -10.522388 O.2        1 UNL1     -0.2702
     9 N         3.71565   -7.122017   -8.427173 N.am        1 UNL1     -0.2772
     10 C         2.718356   -7.218356   -7.484069 C.2        1 UNL1     0.1049
     11 C         2.725107   -6.300966   -6.534031 C.2        1 UNL1     0.0801
     12 C         0.247206   -7.514948   -7.233494 C.ar        1 UNL1     0.0753
     13 C         0.277562   -6.376671   -6.366307 C.ar        1 UNL1     0.0305
     14 C         1.537637   -5.814457   -5.885495 C.2        1 UNL1     0.0924
     15 N         3.669555   -5.401913   -6.208071 N.pl3        1 UNL1     -0.3170
     16 C         3.258233   -4.754224   -4.990875 C.3        1 UNL1     0.1275
     17 N         1.751394   -4.83677   -5.009503 N.2        1 UNL1     -0.2557
     18 C         3.716332   -5.635392   -3.832691 C.3        1 UNL1     0.0016
     19 C         5.216217   -5.854   -3.951621 C.3        1 UNL1     0.0026
     20 N         5.881664   -4.558935   -3.919731 N.3        1 UNL1     -0.3018
     21 C         5.461105   -3.61806   -4.960044 C.3        1 UNL1     0.0026
     22 C         3.952295   -3.409497   -4.819018 C.3        1 UNL1     0.0016
     23 C         7.31402   -4.665526   -3.725727 C.3        1 UNL1     0.0012
     24 C         7.630693   -5.1316   -2.295954 C.3        1 UNL1     -0.0339
     25 C         8.23078   -6.547174   -2.285851 C.3        1 UNL1     -0.0615
     26 C         8.546916   -4.131157   -1.612998 C.3        1 UNL1     -0.0615
     27 C         -0.956302   -8.118654   -7.59018 C.ar        1 UNL1     0.1347
     28 C         -2.185383   -7.699725   -7.112781 C.ar        1 UNL1     0.0342
     29 C         -2.135114   -6.547545   -6.29969 C.ar        1 UNL1     0.1435
     30 C         -0.940079   -5.91047   -5.963168 C.ar        1 UNL1     0.0774
     31 O         -3.235126   -6.081554   -5.66895 O.3        1 UNL1     -0.4436
     32 C         -2.724478   -5.250912   -4.615316 C.3        1 UNL1     0.3143
     33 C         -1.337639   -4.842733   -5.069496 C.2        1 UNL1     0.2504
     34 C         -3.484219   -8.444622   -7.247879 C.3        1 UNL1     -0.0327
     35 O         -3.52149   -4.060436   -4.587177 O.2        1 UNL1     -0.4528
     36 C         -3.517045   -2.890236   -0.976263 C.3        1 UNL1     0.0854
     37 C         -2.294478   -2.530946   -0.046875 C.3        1 UNL1     0.0236
     38 C         -2.349367   -1.067442   0.60649 C.3        1 UNL1     0.1131
     39 C         -2.610306   0.193372   -0.312493 C.3        1 UNL1     0.0200
     40 C         -1.833311   0.343938   -1.780841 C.3        1 UNL1     0.0661
     41 C         -0.167531   0.164559   -2.046571 C.3        1 UNL1     0.0091
     42 C         0.743182   -0.465031   -3.509315 C.3        1 UNL1     0.0661
     43 C         1.545778   -8.086259   -7.668895 C.2        1 UNL1     0.2131
     44 O         1.680211   -9.23207   -8.058487 O.2        1 UNL1     -0.2851
     45 O         -0.901431   -9.193712   -8.47487 O.3        1 UNL1     -0.5056
     46 O         -0.71104   -3.848896   -4.777066 O.2        1 UNL1     -0.2836
     47 C         0.353182   0.351984   -6.018936 C.3        1 UNL1     -0.0566
     48 O         1.712791   0.656803   -3.530839 O.3        1 UNL1     -0.3909
     49 C         0.454269   -0.480874   -0.828263 C.3        1 UNL1     -0.0577
     50 O         -2.558757   -0.311904   -2.801294 O.3        1 UNL1     -0.3910
     51 O         -4.40843   -1.834792   -1.257155 O.3        1 UNL1     -0.3753
     52 C         -0.961298   -3.157823   -0.570903 C.3        1 UNL1     -0.0564
     53 O         -1.384376   -0.879392   1.740402 O.3        1 UNL1     -0.4608
     54 C         -0.684986   0.268475   2.007206 C.2        1 UNL1     0.3042
     55 O         0.500183   0.49412   1.76576 O.2        1 UNL1     -0.2512
     56 C         -1.524703   1.357566   2.611747 C.3        1 UNL1     0.0332
     57 C         -4.177139   0.510702   -0.262396 C.3        1 UNL1     -0.0567
     58 C         -2.594712   -6.156386   -3.368397 C.3        1 UNL1     0.0210
     59 C         -5.662522   -1.913438   -0.581186 C.3        1 UNL1     0.0372
     60 C         -3.154726   -3.505159   -2.282309 C.2        1 UNL1     -0.0208
     61 C         -3.608945   -3.255194   -3.511108 C.2        1 UNL1     0.0882
     62 H         0.064535   -1.608412   -5.207857 H        1 UNL1     0.0365
     63 H         0.82954   -2.80176   -6.677862 H        1 UNL1     0.0576
     64 H         3.62303   -1.838104   -7.55225 H        1 UNL1     0.0615
     65 H         1.885771   -4.313404   -8.334988 H        1 UNL1     0.0622
     66 H         -4.067558   -3.663172   -0.421689 H        1 UNL1     0.0645
     67 H         -2.434429   -3.172753   0.840288 H        1 UNL1     0.0362
     68 H         -3.256806   -1.173933   1.220278 H        1 UNL1     0.0741
     69 H         -2.291645   1.0816   0.216575 H        1 UNL1     0.0359
     70 H         -1.997218   1.421433   -1.973707 H        1 UNL1     0.0600
     71 H         0.161515   1.215479   -1.927186 H        1 UNL1     0.0348
     72 H         -0.258663   -0.191077   -3.870661 H        1 UNL1     0.0602
     73 H         -2.512609   -4.333411   -2.112212 H        1 UNL1     0.0628
     74 H         -4.222415   -2.394144   -3.778476 H        1 UNL1     0.1022
     75 H         5.819786   -3.862398   -9.357122 H        1 UNL1     0.0279
     76 H         5.844185   -5.579223   -9.284902 H        1 UNL1     0.0279
     77 H         5.268324   -4.69169   -10.753223 H        1 UNL1     0.0279
     78 H         4.559287   -6.810804   -7.950204 H        1 UNL1     0.1553
     79 H         4.630987   -5.478841   -6.484954 H        1 UNL1     0.1484
     80 H         3.456759   -5.145581   -2.886396 H        1 UNL1     0.0317
     81 H         3.19245   -6.597221   -3.841805 H        1 UNL1     0.0317
     82 H         5.475497   -6.409865   -4.864692 H        1 UNL1     0.0428
     83 H         5.521455   -6.486141   -3.117188 H        1 UNL1     0.0428
     84 H         5.916568   -2.62738   -4.865613 H        1 UNL1     0.0428
     85 H         5.761243   -3.955306   -5.961792 H        1 UNL1     0.0428
     86 H         3.703806   -2.620266   -5.504113 H        1 UNL1     0.0317
     87 H         3.724133   -2.975191   -3.837989 H        1 UNL1     0.0317
     88 H         7.699402   -5.413767   -4.430645 H        1 UNL1     0.0429
     89 H         7.818982   -3.718156   -3.954371 H        1 UNL1     0.0429
     90 H         6.705374   -5.140393   -1.707804 H        1 UNL1     0.0308
     91 H         9.012687   -6.653118   -3.043808 H        1 UNL1     0.0233
     92 H         8.648601   -6.782625   -1.304221 H        1 UNL1     0.0233
     93 H         7.480719   -7.320222   -2.492348 H        1 UNL1     0.0233
     94 H         9.079539   -4.610936   -0.784771 H        1 UNL1     0.0233
     95 H         9.291532   -3.76099   -2.32327 H        1 UNL1     0.0233
     96 H         7.984596   -3.281311   -1.216104 H        1 UNL1     0.0233
     97 H         -3.928332   -8.667687   -6.282354 H        1 UNL1     0.0280
     98 H         -4.23751   -7.866434   -7.798795 H        1 UNL1     0.0280
     99 H         -3.310652   -9.396195   -7.776535 H        1 UNL1     0.0280
     100 H         -0.384103   -9.040271   -9.245876 H        1 UNL1     0.2922
     101 H         -0.366931   0.843368   -5.364998 H        1 UNL1     0.0236
     102 H         -0.060568   0.153633   -7.007091 H        1 UNL1     0.0236
     103 H         1.137795   1.107977   -6.189382 H        1 UNL1     0.0236
     104 H         2.16204   0.641762   -4.398548 H        1 UNL1     0.2098
     105 H         0.264399   -1.547541   -0.738918 H        1 UNL1     0.0234
     106 H         1.515998   -0.273699   -0.695083 H        1 UNL1     0.0234
     107 H         0.0   0.0   0.0 H        1 UNL1     0.0234
     108 H         -1.968273   -0.385312   -3.575702 H        1 UNL1     0.2098
     109 H         -1.004545   -4.255259   -0.609319 H        1 UNL1     0.0234
     110 H         -0.657863   -2.768629   -1.548757 H        1 UNL1     0.0234
     111 H         -0.114967   -2.916521   0.08594 H        1 UNL1     0.0234
     112 H         -0.985546   1.826644   3.440373 H        1 UNL1     0.0342
     113 H         -1.827787   2.098544   1.873549 H        1 UNL1     0.0342
     114 H         -2.437243   0.901048   3.019208 H        1 UNL1     0.0342
     115 H         -4.410044   1.489035   -0.704899 H        1 UNL1     0.0234
     116 H         -4.79715   -0.233517   -0.766156 H        1 UNL1     0.0234
     117 H         -4.566906   0.641812   0.76173 H        1 UNL1     0.0234
     118 H         -3.576834   -6.510399   -3.009068 H        1 UNL1     0.0309
     119 H         -1.940318   -7.018862   -3.529969 H        1 UNL1     0.0309
     120 H         -2.186094   -5.623668   -2.502747 H        1 UNL1     0.0309
     121 H         -6.394455   -1.372357   -1.180237 H        1 UNL1     0.0524
     122 H         -6.018887   -2.952101   -0.480084 H        1 UNL1     0.0524
     123 H         -5.585221   -1.469416   0.407229 H        1 UNL1     0.0524
@<TRIPOS>BOND
     1     1     2    1
     2     1    42    1
     3     2     3    2
     4     3     4    1
     5     4     5    2
     6     5     7    1
     7     6    75    1
     8     6    76    1
     9     6    77    1
    10     7     9   am
    11     9    10    1
    12    10    11    2
    13    10    43    1
    14    11    14    1
    15    11    15    1
    16    12    13   ar
    17    12    27   ar
    18    12    43    1
    19    13    14    1
    20    13    30   ar
    21    14    17    2
    22    15    16    1
    23    16    17    1
    24    16    18    1
    25    16    22    1
    26    18    19    1
    27    19    20    1
    28    20    21    1
    29    21    22    1
    30    23    24    1
    31    23    88    1
    32    23    89    1
    33    24    25    1
    34    24    26    1
    35    24    90    1
    36    25    91    1
    37    25    92    1
    38    25    93    1
    39    26    94    1
    40    26    95    1
    41    26    96    1
    42    27    28   ar
    43    28    29   ar
    44    29    30   ar
    45    29    31    1
    46    30    33    1
    47    31    32    1
    48    32    33    1
    49    32    35    1
    50    34    97    1
    51    34    98    1
    52    34    99    1
    53    35    61    1
    54    36    37    1
    55    36    60    1
    56    37    38    1
    57    38    39    1
    58    39    40    1
    59    40    41    1
    60    41    42    1
    61    45   100    1
    62    47   101    1
    63    47   102    1
    64    47   103    1
    65    48   104    1
    66    49   105    1
    67    49   106    1
    68    49   107    1
    69    50   108    1
    70    51    59    1
    71    52   109    1
    72    52   110    1
    73    52   111    1
    74    53    54    1
    75    54    55    2
    76    54    56    1
    77    56   112    1
    78    56   113    1
    79    56   114    1
    80    57   115    1
    81    57   116    1
    82    57   117    1
    83    58   118    1
    84    58   119    1
    85    58   120    1
    86    59   121    1
    87    59   122    1
    88    59   123    1
    89    60    61    2
    90     1    47    1
    91     1    62    1
    92     2    63    1
    93     3    64    1
    94     4    65    1
    95     5     6    1
    96     7     8    2
    97     9    78    1
    98    15    79    1
    99    18    80    1
   100    18    81    1
   101    19    82    1
   102    19    83    1
   103    20    23    1
   104    21    84    1
   105    21    85    1
   106    22    86    1
   107    22    87    1
   108    27    45    1
   109    28    34    1
   110    32    58    1
   111    33    46    2
   112    36    51    1
   113    36    66    1
   114    37    52    1
   115    37    67    1
   116    38    53    1
   117    38    68    1
   118    42    48    1
   119    42    72    1
   120    43    44    2
   121    60    73    1
   122    61    74    1
   123    39    69    1
   124    39    57    1
   125    40    70    1
   126    40    50    1
   127    41    71    1
   128    41    49    1
