@<TRIPOS>MOLECULE
*****
 123 128 0 0 0
SMALL
GASTEIGER

@<TRIPOS>ATOM
     1 C         3.117351   -0.788856   -2.592443 C.3        1 UNL1     0.0009
     2 C         3.303024   -0.247349   -4.355773 C.2        1 UNL1     -0.0787
     3 C         3.138203   -0.500959   -5.771599 C.2        1 UNL1     -0.0649
     4 C         3.429891   0.558661   -7.05942 C.2        1 UNL1     -0.0542
     5 C         3.153679   0.834634   -8.421265 C.2        1 UNL1     0.0115
     6 C         2.516338   0.259151   -9.715846 C.3        1 UNL1     -0.0348
     7 C         3.432442   2.310931   -8.986797 C.2        1 UNL1     0.2441
     8 O         4.413209   2.59049   -9.662421 O.2        1 UNL1     -0.2702
     9 N         2.347892   3.198462   -8.876379 N.am        1 UNL1     -0.2772
     10 C         2.37235   3.837354   -7.657962 C.2        1 UNL1     0.1049
     11 C         1.848807   3.174612   -6.64263 C.2        1 UNL1     0.0801
     12 C         3.879033   5.097137   -6.108707 C.ar        1 UNL1     0.0753
     13 C         3.431397   4.21029   -5.078303 C.ar        1 UNL1     0.0305
     14 C         2.303068   3.305122   -5.284694 C.2        1 UNL1     0.0924
     15 N         1.101988   2.057157   -6.633514 N.pl3        1 UNL1     -0.3170
     16 C         0.642166   1.846941   -5.286433 C.3        1 UNL1     0.1275
     17 N         1.695873   2.495171   -4.422012 N.2        1 UNL1     -0.2557
     18 C         -0.624101   2.678618   -5.105921 C.3        1 UNL1     0.0016
     19 C         -1.624211   2.281156   -6.179882 C.3        1 UNL1     0.0026
     20 N         -1.908752   0.858703   -6.050683 N.3        1 UNL1     -0.3018
     21 C         -0.741588   -0.020217   -6.148644 C.3        1 UNL1     0.0026
     22 C         0.247776   0.393743   -5.057915 C.3        1 UNL1     0.0016
     23 C         -3.062348   0.441948   -6.822807 C.3        1 UNL1     0.0012
     24 C         -4.354068   1.000665   -6.205514 C.3        1 UNL1     -0.0339
     25 C         -5.100482   1.912767   -7.192931 C.3        1 UNL1     -0.0615
     26 C         -5.234739   -0.138035   -5.721198 C.3        1 UNL1     -0.0615
     27 C         4.874729   6.040604   -5.866678 C.ar        1 UNL1     0.1347
     28 C         5.466858   6.217454   -4.628874 C.ar        1 UNL1     0.0342
     29 C         5.045207   5.300644   -3.642551 C.ar        1 UNL1     0.1435
     30 C         4.074732   4.326553   -3.880339 C.ar        1 UNL1     0.0774
     31 O         5.44751   5.413063   -2.357825 O.3        1 UNL1     -0.4436
     32 C         4.485763   4.654701   -1.608957 C.3        1 UNL1     0.3143
     33 C         3.896785   3.672191   -2.600921 C.2        1 UNL1     0.2504
     34 C         6.352525   7.365254   -4.23107 C.3        1 UNL1     -0.0327
     35 O         5.210065   3.886142   -0.640476 O.2        1 UNL1     -0.4528
     36 C         2.871858   3.474435   2.321175 C.3        1 UNL1     0.0854
     37 C         1.425072   2.848285   2.368831 C.3        1 UNL1     0.0236
     38 C         1.237163   1.660865   3.430183 C.3        1 UNL1     0.1131
     39 C         2.258241   0.452797   3.445714 C.3        1 UNL1     0.0200
     40 C         2.762673   -0.245502   2.0173 C.3        1 UNL1     0.0661
     41 C         1.755101   -0.76845   0.756771 C.3        1 UNL1     0.0091
     42 C         2.039826   -0.810015   -1.055025 C.3        1 UNL1     0.0661
     43 C         3.185133   5.039326   -7.419211 C.2        1 UNL1     0.2131
     44 O         3.183247   5.955937   -8.220808 O.2        1 UNL1     -0.2851
     45 O         5.284889   6.834392   -6.93584 O.3        1 UNL1     -0.5056
     46 O         3.410466   2.584478   -2.385912 O.2        1 UNL1     -0.2836
     47 C         4.191018   -1.853024   -2.239221 C.3        1 UNL1     -0.0566
     48 O         1.5527   -2.201548   -1.214581 O.3        1 UNL1     -0.3909
     49 C         0.369385   -0.202209   0.972772 C.3        1 UNL1     -0.0577
     50 O         3.878876   0.442667   1.489817 O.3        1 UNL1     -0.3910
     51 O         3.856525   2.808698   3.079235 O.3        1 UNL1     -0.3753
     52 C         0.760078   2.811615   0.954127 C.3        1 UNL1     -0.0564
     53 O         -0.199008   1.32531   3.70793 O.3        1 UNL1     -0.4608
     54 C         -0.653452   0.138449   4.220543 C.2        1 UNL1     0.3042
     55 O         -1.550236   -0.023477   5.047222 O.2        1 UNL1     -0.2512
     56 C         0.01774   -1.068374   3.629111 C.3        1 UNL1     0.0332
     57 C         3.368649   0.774035   4.551143 C.3        1 UNL1     -0.0567
     58 C         3.383382   5.650063   -1.178214 C.3        1 UNL1     0.0210
     59 C         4.272382   3.496754   4.258009 C.3        1 UNL1     0.0372
     60 C         3.433052   3.657716   0.954928 C.2        1 UNL1     -0.0208
     61 C         4.646911   3.383778   0.475085 C.2        1 UNL1     0.0882
     62 H         3.519831   0.179883   -2.272651 H        1 UNL1     0.0365
     63 H         3.823133   0.703615   -4.223021 H        1 UNL1     0.0576
     64 H         2.630718   -1.396339   -6.13747 H        1 UNL1     0.0615
     65 H         4.003412   1.370583   -6.604073 H        1 UNL1     0.0622
     66 H         2.748833   4.485407   2.73451 H        1 UNL1     0.0645
     67 H         0.803545   3.643185   2.816491 H        1 UNL1     0.0362
     68 H         1.42689   2.215253   4.361945 H        1 UNL1     0.0741
     69 H         1.805641   -0.378731   3.969281 H        1 UNL1     0.0359
     70 H         3.180713   -1.193831   2.405855 H        1 UNL1     0.0600
     71 H         1.606489   -1.825155   1.053835 H        1 UNL1     0.0348
     72 H         3.035341   -0.73984   -0.593137 H        1 UNL1     0.0602
     73 H         2.735577   4.193052   0.359788 H        1 UNL1     0.0628
     74 H         5.39734   2.79024   0.998349 H        1 UNL1     0.1022
     75 H         2.734168   0.921658   -10.588009 H        1 UNL1     0.0279
     76 H         2.891005   -0.704295   -10.054174 H        1 UNL1     0.0279
     77 H         1.416913   0.282367   -9.695218 H        1 UNL1     0.0279
     78 H         1.474089   2.679442   -8.932628 H        1 UNL1     0.1553
     79 H         0.610769   1.708979   -7.436264 H        1 UNL1     0.1484
     80 H         -1.025833   2.504582   -4.100392 H        1 UNL1     0.0317
     81 H         -0.402196   3.749036   -5.173861 H        1 UNL1     0.0317
     82 H         -1.2558   2.521141   -7.188145 H        1 UNL1     0.0428
     83 H         -2.518742   2.887391   -6.033786 H        1 UNL1     0.0428
     84 H         -0.970636   -1.075221   -5.968884 H        1 UNL1     0.0428
     85 H         -0.305627   -0.009936   -7.157183 H        1 UNL1     0.0428
     86 H         1.023091   -0.34966   -5.072969 H        1 UNL1     0.0317
     87 H         -0.208847   0.264232   -4.069068 H        1 UNL1     0.0317
     88 H         -2.957406   0.845385   -7.838445 H        1 UNL1     0.0429
     89 H         -3.107511   -0.65095   -6.913953 H        1 UNL1     0.0429
     90 H         -4.101972   1.584965   -5.312622 H        1 UNL1     0.0308
     91 H         -5.167643   1.454941   -8.184388 H        1 UNL1     0.0233
     92 H         -6.107417   2.132419   -6.830378 H        1 UNL1     0.0233
     93 H         -4.604125   2.882058   -7.323082 H        1 UNL1     0.0233
     94 H         -6.275648   0.194853   -5.646836 H        1 UNL1     0.0233
     95 H         -5.196302   -0.968375   -6.431845 H        1 UNL1     0.0233
     96 H         -4.916329   -0.498862   -4.739166 H        1 UNL1     0.0233
     97 H         7.321194   7.320895   -4.719888 H        1 UNL1     0.0280
     98 H         5.920755   8.336132   -4.507162 H        1 UNL1     0.0280
     99 H         6.514391   7.345883   -3.140878 H        1 UNL1     0.0280
     100 H         5.484962   6.358475   -7.722666 H        1 UNL1     0.2922
     101 H         3.888299   -2.39812   -1.345415 H        1 UNL1     0.0236
     102 H         5.192978   -1.43587   -2.144133 H        1 UNL1     0.0236
     103 H         4.281294   -2.625576   -3.021018 H        1 UNL1     0.0236
     104 H         2.316812   -2.797722   -1.089368 H        1 UNL1     0.2098
     105 H         -0.324358   -0.885021   1.456818 H        1 UNL1     0.0234
     106 H         0.346417   0.770609   1.463714 H        1 UNL1     0.0234
     107 H         0.0   0.0   0.0 H        1 UNL1     0.0234
     108 H         3.810189   1.372547   1.780288 H        1 UNL1     0.2098
     109 H         1.345286   2.222154   0.234559 H        1 UNL1     0.0234
     110 H         -0.272397   2.446411   0.973214 H        1 UNL1     0.0234
     111 H         0.67897   3.816563   0.518873 H        1 UNL1     0.0234
     112 H         0.986468   -1.229407   4.111792 H        1 UNL1     0.0342
     113 H         -0.605743   -1.958545   3.697717 H        1 UNL1     0.0342
     114 H         0.200858   -0.871532   2.563801 H        1 UNL1     0.0342
     115 H         3.077703   1.620524   5.188321 H        1 UNL1     0.0234
     116 H         3.597929   -0.067603   5.207743 H        1 UNL1     0.0234
     117 H         4.318065   1.143298   4.126647 H        1 UNL1     0.0234
     118 H         3.797067   6.640597   -0.919924 H        1 UNL1     0.0309
     119 H         2.599031   5.774856   -1.931489 H        1 UNL1     0.0309
     120 H         2.874295   5.341373   -0.258623 H        1 UNL1     0.0309
     121 H         4.938349   2.833481   4.809292 H        1 UNL1     0.0524
     122 H         4.83535   4.416834   4.028754 H        1 UNL1     0.0524
     123 H         3.410377   3.753411   4.867245 H        1 UNL1     0.0524
@<TRIPOS>BOND
     1     1     2    1
     2     1    42    1
     3     2     3    2
     4     3     4    1
     5     4     5    2
     6     5     7    1
     7     6    75    1
     8     6    76    1
     9     6    77    1
    10     7     9   am
    11     9    10    1
    12    10    11    2
    13    10    43    1
    14    11    14    1
    15    11    15    1
    16    12    13   ar
    17    12    27   ar
    18    12    43    1
    19    13    14    1
    20    13    30   ar
    21    14    17    2
    22    15    16    1
    23    16    17    1
    24    16    18    1
    25    16    22    1
    26    18    19    1
    27    19    20    1
    28    20    21    1
    29    21    22    1
    30    23    24    1
    31    23    88    1
    32    23    89    1
    33    24    25    1
    34    24    26    1
    35    24    90    1
    36    25    91    1
    37    25    92    1
    38    25    93    1
    39    26    94    1
    40    26    95    1
    41    26    96    1
    42    27    28   ar
    43    28    29   ar
    44    29    30   ar
    45    29    31    1
    46    30    33    1
    47    31    32    1
    48    32    33    1
    49    32    35    1
    50    34    97    1
    51    34    98    1
    52    34    99    1
    53    35    61    1
    54    36    37    1
    55    36    60    1
    56    37    38    1
    57    38    39    1
    58    39    40    1
    59    40    41    1
    60    41    42    1
    61    45   100    1
    62    47   101    1
    63    47   102    1
    64    47   103    1
    65    48   104    1
    66    49   105    1
    67    49   106    1
    68    49   107    1
    69    50   108    1
    70    51    59    1
    71    52   109    1
    72    52   110    1
    73    52   111    1
    74    53    54    1
    75    54    55    2
    76    54    56    1
    77    56   112    1
    78    56   113    1
    79    56   114    1
    80    57   115    1
    81    57   116    1
    82    57   117    1
    83    58   118    1
    84    58   119    1
    85    58   120    1
    86    59   121    1
    87    59   122    1
    88    59   123    1
    89    60    61    2
    90     1    47    1
    91     1    62    1
    92     2    63    1
    93     3    64    1
    94     4    65    1
    95     5     6    1
    96     7     8    2
    97     9    78    1
    98    15    79    1
    99    18    80    1
   100    18    81    1
   101    19    82    1
   102    19    83    1
   103    20    23    1
   104    21    84    1
   105    21    85    1
   106    22    86    1
   107    22    87    1
   108    27    45    1
   109    28    34    1
   110    32    58    1
   111    33    46    2
   112    36    51    1
   113    36    66    1
   114    37    52    1
   115    37    67    1
   116    38    53    1
   117    38    68    1
   118    42    48    1
   119    42    72    1
   120    43    44    2
   121    60    73    1
   122    61    74    1
   123    39    69    1
   124    39    57    1
   125    40    70    1
   126    40    50    1
   127    41    71    1
   128    41    49    1
