@<TRIPOS>MOLECULE
*****
 123 128 0 0 0
SMALL
GASTEIGER

@<TRIPOS>ATOM
     1 C         3.659697   -3.336657   -0.508646 C.3        1 UNL1     0.0009
     2 C         4.333869   -4.367335   -1.89437 C.2        1 UNL1     -0.0787
     3 C         4.591482   -5.663675   -2.485288 C.2        1 UNL1     -0.0649
     4 C         5.217106   -6.001049   -4.021886 C.2        1 UNL1     -0.0542
     5 C         5.339658   -6.983102   -5.035607 C.2        1 UNL1     0.0115
     6 C         5.117833   -8.485357   -5.363244 C.3        1 UNL1     -0.0348
     7 C         5.734046   -6.520824   -6.521455 C.2        1 UNL1     0.2441
     8 O         6.861134   -6.646229   -6.980225 O.2        1 UNL1     -0.2702
     9 N         4.642654   -6.204172   -7.34895 N.am        1 UNL1     -0.2772
     10 C         4.298413   -4.879865   -7.203933 C.2        1 UNL1     0.1049
     11 C         3.520018   -4.589889   -6.177173 C.2        1 UNL1     0.0801
     12 C         5.261997   -2.571622   -7.174719 C.ar        1 UNL1     0.0753
     13 C         4.55733   -2.377651   -5.944098 C.ar        1 UNL1     0.0305
     14 C         3.559124   -3.335937   -5.474712 C.2        1 UNL1     0.0924
     15 N         2.829792   -5.403338   -5.359606 N.pl3        1 UNL1     -0.3170
     16 C         2.005513   -4.580672   -4.514598 C.3        1 UNL1     0.1275
     17 N         2.748364   -3.270174   -4.422443 N.2        1 UNL1     -0.2557
     18 C         0.721314   -4.286319   -5.283942 C.3        1 UNL1     0.0016
     19 C         0.084229   -5.605791   -5.689781 C.3        1 UNL1     0.0026
     20 N         -0.190891   -6.381503   -4.488278 N.3        1 UNL1     -0.3018
     21 C         0.975755   -6.662732   -3.649101 C.3        1 UNL1     0.0026
     22 C         1.597309   -5.323457   -3.249218 C.3        1 UNL1     0.0016
     23 C         -1.06163   -7.513577   -4.734985 C.3        1 UNL1     0.0012
     24 C         -2.285477   -7.464095   -3.806811 C.3        1 UNL1     -0.0339
     25 C         -1.871262   -7.258056   -2.340513 C.3        1 UNL1     -0.0615
     26 C         -3.248869   -6.386142   -4.272294 C.3        1 UNL1     -0.0615
     27 C         6.122041   -1.597017   -7.675306 C.ar        1 UNL1     0.1347
     28 C         6.326684   -0.376452   -7.056927 C.ar        1 UNL1     0.0342
     29 C         5.660354   -0.227516   -5.822023 C.ar        1 UNL1     0.1435
     30 C         4.823963   -1.209795   -5.290236 C.ar        1 UNL1     0.0774
     31 O         5.671332   0.945666   -5.152299 O.3        1 UNL1     -0.4436
     32 C         4.552902   0.862178   -4.256188 C.3        1 UNL1     0.3143
     33 C         4.299781   -0.62091   -4.075652 C.2        1 UNL1     0.2504
     34 C         7.031448   0.80848   -7.65638 C.3        1 UNL1     -0.0327
     35 O         4.984825   1.369162   -2.987464 O.2        1 UNL1     -0.4528
     36 C         1.901159   2.872761   -1.363184 C.3        1 UNL1     0.0854
     37 C         0.517988   2.191834   -1.030471 C.3        1 UNL1     0.0236
     38 C         0.060237   2.305165   0.502292 C.3        1 UNL1     0.1131
     39 C         1.062265   1.889881   1.653704 C.3        1 UNL1     0.0200
     40 C         1.974798   0.500068   1.519019 C.3        1 UNL1     0.0661
     41 C         1.387538   -1.038784   1.113222 C.3        1 UNL1     0.0091
     42 C         2.184667   -2.412816   0.195602 C.3        1 UNL1     0.0661
     43 C         4.978079   -3.807418   -7.945731 C.2        1 UNL1     0.2131
     44 O         5.185694   -3.917952   -9.140476 O.2        1 UNL1     -0.2851
     45 O         6.804303   -1.883533   -8.855927 O.3        1 UNL1     -0.5056
     46 O         3.798631   -1.190422   -3.132064 O.2        1 UNL1     -0.2836
     47 C         4.610963   -3.392172   0.716912 C.3        1 UNL1     -0.0566
     48 O         1.798373   -3.44859   1.184069 O.3        1 UNL1     -0.3909
     49 C         -0.014789   -0.896932   0.564725 C.3        1 UNL1     -0.0577
     50 O         3.178766   0.756396   0.824412 O.3        1 UNL1     -0.3910
     51 O         2.640575   3.338273   -0.256841 O.3        1 UNL1     -0.3753
     52 C         0.291335   0.893491   -1.87183 C.3        1 UNL1     -0.0564
     53 O         -1.38633   1.972078   0.723256 O.3        1 UNL1     -0.4608
     54 C         -1.888889   1.284185   1.796647 C.2        1 UNL1     0.3042
     55 O         -2.829699   1.610969   2.519093 O.2        1 UNL1     -0.2512
     56 C         -1.2114   -0.035033   2.036199 C.3        1 UNL1     0.0332
     57 C         1.797663   3.218613   2.155536 C.3        1 UNL1     -0.0567
     58 C         3.34925   1.486838   -4.999527 C.3        1 UNL1     0.0210
     59 C         3.524703   4.421817   -0.539886 C.3        1 UNL1     0.0372
     60 C         2.828645   2.045282   -2.181846 C.2        1 UNL1     -0.0208
     61 C         4.135661   1.818678   -2.043619 C.2        1 UNL1     0.0882
     62 H         3.928936   -2.435838   -1.073224 H        1 UNL1     0.0365
     63 H         4.770169   -3.593817   -2.529809 H        1 UNL1     0.0576
     64 H         4.233288   -6.585513   -2.021587 H        1 UNL1     0.0615
     65 H         5.614663   -5.039646   -4.358242 H        1 UNL1     0.0622
     66 H         1.639421   3.738808   -1.987285 H        1 UNL1     0.0645
     67 H         -0.225501   2.837129   -1.529849 H        1 UNL1     0.0362
     68 H         -0.040941   3.398168   0.583713 H        1 UNL1     0.0741
     69 H         0.497987   1.716119   2.560239 H        1 UNL1     0.0359
     70 H         2.285594   0.373065   2.573693 H        1 UNL1     0.0600
     71 H         1.185111   -1.441431   2.12508 H        1 UNL1     0.0348
     72 H         3.002197   -1.760267   0.534926 H        1 UNL1     0.0602
     73 H         2.320157   1.705993   -3.049931 H        1 UNL1     0.0628
     74 H         4.717013   2.081901   -1.159322 H        1 UNL1     0.1022
     75 H         4.541905   -8.598503   -6.313265 H        1 UNL1     0.0279
     76 H         6.009959   -9.076218   -5.558344 H        1 UNL1     0.0279
     77 H         4.450563   -8.983334   -4.644585 H        1 UNL1     0.0279
     78 H         3.835266   -6.761936   -7.078576 H        1 UNL1     0.1553
     79 H         2.600144   -6.354093   -5.583797 H        1 UNL1     0.1484
     80 H         0.050463   -3.696642   -4.647541 H        1 UNL1     0.0317
     81 H         0.927331   -3.677642   -6.170915 H        1 UNL1     0.0317
     82 H         0.722379   -6.168642   -6.386828 H        1 UNL1     0.0428
     83 H         -0.828793   -5.372674   -6.238503 H        1 UNL1     0.0428
     84 H         0.73021   -7.176709   -2.71457 H        1 UNL1     0.0428
     85 H         1.684208   -7.338907   -4.147296 H        1 UNL1     0.0428
     86 H         2.361697   -5.561375   -2.532911 H        1 UNL1     0.0317
     87 H         0.877667   -4.735457   -2.666579 H        1 UNL1     0.0317
     88 H         -1.409127   -7.456938   -5.774856 H        1 UNL1     0.0429
     89 H         -0.521398   -8.463003   -4.627683 H        1 UNL1     0.0429
     90 H         -2.834091   -8.410201   -3.885038 H        1 UNL1     0.0308
     91 H         -0.792422   -7.385541   -2.210306 H        1 UNL1     0.0233
     92 H         -2.15919   -6.26276   -1.993967 H        1 UNL1     0.0233
     93 H         -2.359645   -7.970361   -1.66454 H        1 UNL1     0.0233
     94 H         -3.241375   -5.544542   -3.571231 H        1 UNL1     0.0233
     95 H         -2.943861   -6.010626   -5.253069 H        1 UNL1     0.0233
     96 H         -4.271193   -6.768037   -4.342844 H        1 UNL1     0.0233
     97 H         7.021053   1.667588   -6.99226 H        1 UNL1     0.0280
     98 H         8.089597   0.600229   -7.861826 H        1 UNL1     0.0280
     99 H         6.536428   1.094302   -8.598906 H        1 UNL1     0.0280
     100 H         7.716185   -2.086215   -8.741848 H        1 UNL1     0.2922
     101 H         5.617665   -3.104755   0.414259 H        1 UNL1     0.0236
     102 H         4.596474   -4.354481   1.227534 H        1 UNL1     0.0236
     103 H         4.331514   -2.658736   1.491621 H        1 UNL1     0.0236
     104 H         2.61925   -3.870235   1.505546 H        1 UNL1     0.2098
     105 H         -0.321436   -1.702314   -0.097951 H        1 UNL1     0.0234
     106 H         -0.781762   -0.714167   1.317238 H        1 UNL1     0.0234
     107 H         0.0   0.0   0.0 H        1 UNL1     0.0234
     108 H         2.953167   1.295707   0.042098 H        1 UNL1     0.2098
     109 H         1.2243   0.336728   -2.037064 H        1 UNL1     0.0234
     110 H         -0.461836   0.226228   -1.439121 H        1 UNL1     0.0234
     111 H         -0.099261   1.122574   -2.872281 H        1 UNL1     0.0234
     112 H         -1.723672   -0.576423   2.837337 H        1 UNL1     0.0342
     113 H         -1.15621   -0.637467   1.130732 H        1 UNL1     0.0342
     114 H         -0.182713   0.162743   2.36764 H        1 UNL1     0.0342
     115 H         2.167085   3.116848   3.185274 H        1 UNL1     0.0234
     116 H         2.641507   3.521322   1.532364 H        1 UNL1     0.0234
     117 H         1.120965   4.084537   2.25651 H        1 UNL1     0.0234
     118 H         3.097147   2.489264   -4.611464 H        1 UNL1     0.0309
     119 H         3.498117   1.548937   -6.082202 H        1 UNL1     0.0309
     120 H         2.423905   0.919125   -4.852745 H        1 UNL1     0.0309
     121 H         2.920676   5.323573   -0.636551 H        1 UNL1     0.0524
     122 H         4.24975   4.593483   0.273057 H        1 UNL1     0.0524
     123 H         4.067057   4.233313   -1.462063 H        1 UNL1     0.0524
@<TRIPOS>BOND
     1     1     2    1
     2     1    42    1
     3     2     3    2
     4     3     4    1
     5     4     5    2
     6     5     7    1
     7     6    75    1
     8     6    76    1
     9     6    77    1
    10     7     9   am
    11     9    10    1
    12    10    11    2
    13    10    43    1
    14    11    14    1
    15    11    15    1
    16    12    13   ar
    17    12    27   ar
    18    12    43    1
    19    13    14    1
    20    13    30   ar
    21    14    17    2
    22    15    16    1
    23    16    17    1
    24    16    18    1
    25    16    22    1
    26    18    19    1
    27    19    20    1
    28    20    21    1
    29    21    22    1
    30    23    24    1
    31    23    88    1
    32    23    89    1
    33    24    25    1
    34    24    26    1
    35    24    90    1
    36    25    91    1
    37    25    92    1
    38    25    93    1
    39    26    94    1
    40    26    95    1
    41    26    96    1
    42    27    28   ar
    43    28    29   ar
    44    29    30   ar
    45    29    31    1
    46    30    33    1
    47    31    32    1
    48    32    33    1
    49    32    35    1
    50    34    97    1
    51    34    98    1
    52    34    99    1
    53    35    61    1
    54    36    37    1
    55    36    60    1
    56    37    38    1
    57    38    39    1
    58    39    40    1
    59    40    41    1
    60    41    42    1
    61    45   100    1
    62    47   101    1
    63    47   102    1
    64    47   103    1
    65    48   104    1
    66    49   105    1
    67    49   106    1
    68    49   107    1
    69    50   108    1
    70    51    59    1
    71    52   109    1
    72    52   110    1
    73    52   111    1
    74    53    54    1
    75    54    55    2
    76    54    56    1
    77    56   112    1
    78    56   113    1
    79    56   114    1
    80    57   115    1
    81    57   116    1
    82    57   117    1
    83    58   118    1
    84    58   119    1
    85    58   120    1
    86    59   121    1
    87    59   122    1
    88    59   123    1
    89    60    61    2
    90     1    47    1
    91     1    62    1
    92     2    63    1
    93     3    64    1
    94     4    65    1
    95     5     6    1
    96     7     8    2
    97     9    78    1
    98    15    79    1
    99    18    80    1
   100    18    81    1
   101    19    82    1
   102    19    83    1
   103    20    23    1
   104    21    84    1
   105    21    85    1
   106    22    86    1
   107    22    87    1
   108    27    45    1
   109    28    34    1
   110    32    58    1
   111    33    46    2
   112    36    51    1
   113    36    66    1
   114    37    52    1
   115    37    67    1
   116    38    53    1
   117    38    68    1
   118    42    48    1
   119    42    72    1
   120    43    44    2
   121    60    73    1
   122    61    74    1
   123    39    69    1
   124    39    57    1
   125    40    70    1
   126    40    50    1
   127    41    71    1
   128    41    49    1
