@<TRIPOS>MOLECULE
*****
 123 128 0 0 0
SMALL
GASTEIGER

@<TRIPOS>ATOM
     1 C         -0.141135   4.037359   -1.284842 C.3        1 UNL1     0.0009
     2 C         -1.549719   4.912067   -2.114188 C.2        1 UNL1     -0.0787
     3 C         -2.153475   5.473718   -3.304176 C.2        1 UNL1     -0.0649
     4 C         -3.708356   6.121249   -3.475663 C.2        1 UNL1     -0.0542
     5 C         -4.729566   6.460698   -4.397065 C.2        1 UNL1     0.0115
     6 C         -5.057794   6.618459   -5.907264 C.3        1 UNL1     -0.0348
     7 C         -6.223649   6.683064   -3.853689 C.2        1 UNL1     0.2441
     8 O         -6.714064   7.791769   -3.690006 O.2        1 UNL1     -0.2702
     9 N         -7.019107   5.524328   -3.826698 N.am        1 UNL1     -0.2772
     10 C         -6.858546   4.859344   -2.632823 C.2        1 UNL1     0.1049
     11 C         -5.809281   4.061877   -2.547305 C.2        1 UNL1     0.0801
     12 C         -6.845505   5.205761   -0.155494 C.ar        1 UNL1     0.0753
     13 C         -5.594944   4.509656   -0.14358 C.ar        1 UNL1     0.0305
     14 C         -5.102447   3.800985   -1.322684 C.2        1 UNL1     0.0924
     15 N         -4.976619   3.623943   -3.507208 N.pl3        1 UNL1     -0.3170
     16 C         -4.105326   2.641789   -2.918586 C.3        1 UNL1     0.1275
     17 N         -4.027812   3.029865   -1.462182 N.2        1 UNL1     -0.2557
     18 C         -4.837412   1.303928   -2.961966 C.3        1 UNL1     0.0016
     19 C         -5.231459   1.011611   -4.401017 C.3        1 UNL1     0.0026
     20 N         -4.02635   0.976175   -5.218014 N.3        1 UNL1     -0.3018
     21 C         -3.22114   2.199003   -5.191606 C.3        1 UNL1     0.0026
     22 C         -2.832524   2.471111   -3.73736 C.3        1 UNL1     0.0016
     23 C         -4.253993   0.414829   -6.534719 C.3        1 UNL1     0.0012
     24 C         -4.71905   1.505661   -7.512248 C.3        1 UNL1     -0.0339
     25 C         -5.713733   0.949111   -8.544195 C.3        1 UNL1     -0.0615
     26 C         -5.306882   2.676832   -6.7444 C.3        1 UNL1     -0.0615
     27 C         -7.365285   5.775836   1.004231 C.ar        1 UNL1     0.1347
     28 C         -6.747242   5.681113   2.238371 C.ar        1 UNL1     0.0342
     29 C         -5.493669   5.033626   2.216471 C.ar        1 UNL1     0.1435
     30 C         -4.943392   4.489241   1.05541 C.ar        1 UNL1     0.0774
     31 O         -4.819148   4.765129   3.355742 O.3        1 UNL1     -0.4436
     32 C         -3.892761   3.730066   2.993355 C.3        1 UNL1     0.3143
     33 C         -3.71206   3.866924   1.49508 C.2        1 UNL1     0.2504
     34 C         -7.36058   6.044894   3.561843 C.3        1 UNL1     -0.0327
     35 O         -2.634195   4.054448   3.596714 O.2        1 UNL1     -0.4528
     36 C         -0.918176   0.736778   4.272308 C.3        1 UNL1     0.0854
     37 C         -0.550356   -0.418329   3.263369 C.3        1 UNL1     0.0236
     38 C         0.995014   -0.846782   3.260771 C.3        1 UNL1     0.1131
     39 C         2.116287   0.25966   3.116538 C.3        1 UNL1     0.0200
     40 C         1.949996   1.491005   2.003626 C.3        1 UNL1     0.0661
     41 C         1.553605   1.302558   0.365037 C.3        1 UNL1     0.0091
     42 C         0.607961   2.396413   -0.763963 C.3        1 UNL1     0.0661
     43 C         -7.613992   5.223434   -1.424893 C.2        1 UNL1     0.2131
     44 O         -8.814527   5.418795   -1.482217 O.2        1 UNL1     -0.2851
     45 O         -8.565668   6.475174   0.897249 O.3        1 UNL1     -0.5056
     46 O         -2.757554   3.553388   0.819457 O.2        1 UNL1     -0.2836
     47 C         1.057309   5.005458   -1.093793 C.3        1 UNL1     -0.0566
     48 O         1.602011   2.313556   -1.861284 O.3        1 UNL1     -0.3909
     49 C         1.044857   -0.104615   0.144739 C.3        1 UNL1     -0.0577
     50 O         1.223452   2.570525   2.555434 O.3        1 UNL1     -0.3910
     51 O         0.169356   1.364438   4.913205 O.3        1 UNL1     -0.3753
     52 C         -1.391035   -0.331379   1.947828 C.3        1 UNL1     -0.0564
     53 O         1.254477   -2.154618   2.571881 O.3        1 UNL1     -0.4608
     54 C         2.312481   -2.988884   2.821999 C.2        1 UNL1     0.3042
     55 O         2.267865   -4.159473   3.198256 O.2        1 UNL1     -0.2512
     56 C         3.649518   -2.367407   2.534229 C.3        1 UNL1     0.0332
     57 C         2.603606   0.647365   4.589758 C.3        1 UNL1     -0.0567
     58 C         -4.599574   2.38695   3.289976 C.3        1 UNL1     0.0210
     59 C         -0.184002   2.193245   6.019587 C.3        1 UNL1     0.0372
     60 C         -1.766017   1.820675   3.705306 C.2        1 UNL1     -0.0208
     61 C         -1.665122   3.145736   3.818355 C.2        1 UNL1     0.0882
     62 H         -0.708835   4.053168   -0.346664 H        1 UNL1     0.0365
     63 H         -2.193467   5.119732   -1.256905 H        1 UNL1     0.0576
     64 H         -1.684241   5.374419   -4.285535 H        1 UNL1     0.0615
     65 H         -4.051206   6.252124   -2.445707 H        1 UNL1     0.0622
     66 H         -1.530812   0.246384   5.041878 H        1 UNL1     0.0645
     67 H         -1.02597   -1.314959   3.697427 H        1 UNL1     0.0362
     68 H         1.084207   -1.21982   4.292473 H        1 UNL1     0.0741
     69 H         3.037316   -0.21642   2.807569 H        1 UNL1     0.0359
     70 H         2.995054   1.853246   1.962461 H        1 UNL1     0.0600
     71 H         2.568834   1.237383   -0.073162 H        1 UNL1     0.0348
     72 H         0.927466   3.03065   0.075666 H        1 UNL1     0.0602
     73 H         -2.621211   1.390903   3.245755 H        1 UNL1     0.0628
     74 H         -0.79609   3.66572   4.222878 H        1 UNL1     0.1022
     75 H         -4.61858   7.564071   -6.307194 H        1 UNL1     0.0279
     76 H         -4.64295   5.866723   -6.574996 H        1 UNL1     0.0279
     77 H         -6.129313   6.780784   -6.094877 H        1 UNL1     0.0279
     78 H         -6.729003   4.892892   -4.570476 H        1 UNL1     0.1553
     79 H         -5.198702   3.63702   -4.485698 H        1 UNL1     0.1484
     80 H         -4.179964   0.523427   -2.560286 H        1 UNL1     0.0317
     81 H         -5.726963   1.323761   -2.323252 H        1 UNL1     0.0317
     82 H         -5.9485   1.751988   -4.785212 H        1 UNL1     0.0428
     83 H         -5.753582   0.054335   -4.408802 H        1 UNL1     0.0428
     84 H         -2.28252   2.118242   -5.748636 H        1 UNL1     0.0428
     85 H         -3.741874   3.041687   -5.667039 H        1 UNL1     0.0428
     86 H         -2.138783   3.29059   -3.771519 H        1 UNL1     0.0317
     87 H         -2.227472   1.642359   -3.349832 H        1 UNL1     0.0317
     88 H         -3.304301   0.001299   -6.898552 H        1 UNL1     0.0429
     89 H         -4.972031   -0.414445   -6.495972 H        1 UNL1     0.0429
     90 H         -3.848364   1.904355   -8.046254 H        1 UNL1     0.0308
     91 H         -6.478545   0.330054   -8.065725 H        1 UNL1     0.0233
     92 H         -6.199537   1.761558   -9.089661 H        1 UNL1     0.0233
     93 H         -5.224635   0.322851   -9.300116 H        1 UNL1     0.0233
     94 H         -5.972058   3.257673   -7.392474 H        1 UNL1     0.0233
     95 H         -5.895382   2.311238   -5.898249 H        1 UNL1     0.0233
     96 H         -4.523621   3.341209   -6.368803 H        1 UNL1     0.0233
     97 H         -7.483819   7.118104   3.672575 H        1 UNL1     0.0280
     98 H         -8.362142   5.612933   3.686501 H        1 UNL1     0.0280
     99 H         -6.714567   5.685076   4.379335 H        1 UNL1     0.0280
     100 H         -9.337354   5.946236   0.998978 H        1 UNL1     0.2922
     101 H         1.973039   4.432751   -0.948529 H        1 UNL1     0.0236
     102 H         0.898699   5.732048   -0.297619 H        1 UNL1     0.0236
     103 H         1.246896   5.612634   -1.994674 H        1 UNL1     0.0236
     104 H         2.274281   1.653774   -1.60107 H        1 UNL1     0.2098
     105 H         1.454584   -0.598035   -0.733027 H        1 UNL1     0.0234
     106 H         1.119721   -0.757271   1.01443 H        1 UNL1     0.0234
     107 H         -0.0   0.0   0.0 H        1 UNL1     0.0234
     108 H         1.186441   3.272164   1.877127 H        1 UNL1     0.2098
     109 H         -2.032978   -1.211915   1.805433 H        1 UNL1     0.0234
     110 H         -1.997581   0.578441   1.884006 H        1 UNL1     0.0234
     111 H         -0.747945   -0.28549   1.058854 H        1 UNL1     0.0234
     112 H         4.38517   -2.710785   3.267887 H        1 UNL1     0.0342
     113 H         3.985883   -2.57131   1.518785 H        1 UNL1     0.0342
     114 H         3.551493   -1.278203   2.640013 H        1 UNL1     0.0342
     115 H         3.674351   0.892485   4.614453 H        1 UNL1     0.0234
     116 H         2.063917   1.488801   5.028814 H        1 UNL1     0.0234
     117 H         2.56108   -0.193875   5.302814 H        1 UNL1     0.0234
     118 H         -4.35979   1.616883   2.535981 H        1 UNL1     0.0309
     119 H         -4.375132   1.994311   4.286802 H        1 UNL1     0.0309
     120 H         -5.690834   2.464723   3.233333 H        1 UNL1     0.0309
     121 H         -0.115632   1.585813   6.921645 H        1 UNL1     0.0524
     122 H         0.504875   3.045813   6.140475 H        1 UNL1     0.0524
     123 H         -1.195103   2.571406   5.898084 H        1 UNL1     0.0524
@<TRIPOS>BOND
     1     1     2    1
     2     1    42    1
     3     2     3    2
     4     3     4    1
     5     4     5    2
     6     5     7    1
     7     6    75    1
     8     6    76    1
     9     6    77    1
    10     7     9   am
    11     9    10    1
    12    10    11    2
    13    10    43    1
    14    11    14    1
    15    11    15    1
    16    12    13   ar
    17    12    27   ar
    18    12    43    1
    19    13    14    1
    20    13    30   ar
    21    14    17    2
    22    15    16    1
    23    16    17    1
    24    16    18    1
    25    16    22    1
    26    18    19    1
    27    19    20    1
    28    20    21    1
    29    21    22    1
    30    23    24    1
    31    23    88    1
    32    23    89    1
    33    24    25    1
    34    24    26    1
    35    24    90    1
    36    25    91    1
    37    25    92    1
    38    25    93    1
    39    26    94    1
    40    26    95    1
    41    26    96    1
    42    27    28   ar
    43    28    29   ar
    44    29    30   ar
    45    29    31    1
    46    30    33    1
    47    31    32    1
    48    32    33    1
    49    32    35    1
    50    34    97    1
    51    34    98    1
    52    34    99    1
    53    35    61    1
    54    36    37    1
    55    36    60    1
    56    37    38    1
    57    38    39    1
    58    39    40    1
    59    40    41    1
    60    41    42    1
    61    45   100    1
    62    47   101    1
    63    47   102    1
    64    47   103    1
    65    48   104    1
    66    49   105    1
    67    49   106    1
    68    49   107    1
    69    50   108    1
    70    51    59    1
    71    52   109    1
    72    52   110    1
    73    52   111    1
    74    53    54    1
    75    54    55    2
    76    54    56    1
    77    56   112    1
    78    56   113    1
    79    56   114    1
    80    57   115    1
    81    57   116    1
    82    57   117    1
    83    58   118    1
    84    58   119    1
    85    58   120    1
    86    59   121    1
    87    59   122    1
    88    59   123    1
    89    60    61    2
    90     1    47    1
    91     1    62    1
    92     2    63    1
    93     3    64    1
    94     4    65    1
    95     5     6    1
    96     7     8    2
    97     9    78    1
    98    15    79    1
    99    18    80    1
   100    18    81    1
   101    19    82    1
   102    19    83    1
   103    20    23    1
   104    21    84    1
   105    21    85    1
   106    22    86    1
   107    22    87    1
   108    27    45    1
   109    28    34    1
   110    32    58    1
   111    33    46    2
   112    36    51    1
   113    36    66    1
   114    37    52    1
   115    37    67    1
   116    38    53    1
   117    38    68    1
   118    42    48    1
   119    42    72    1
   120    43    44    2
   121    60    73    1
   122    61    74    1
   123    39    69    1
   124    39    57    1
   125    40    70    1
   126    40    50    1
   127    41    71    1
   128    41    49    1
