@<TRIPOS>MOLECULE
*****
 123 128 0 0 0
SMALL
GASTEIGER

@<TRIPOS>ATOM
     1 C         1.313338   5.084011   1.219495 C.3        1 UNL1     0.0009
     2 C         2.638514   6.379962   1.181306 C.2        1 UNL1     -0.0787
     3 C         3.749529   7.059385   1.813822 C.2        1 UNL1     -0.0649
     4 C         4.763602   8.2396   1.146658 C.2        1 UNL1     -0.0542
     5 C         6.018164   8.888683   1.255481 C.2        1 UNL1     0.0115
     6 C         7.263421   9.071866   2.166031 C.3        1 UNL1     -0.0348
     7 C         6.588137   9.694847   -0.010307 C.2        1 UNL1     0.2441
     8 O         6.543777   10.91425   -0.097562 O.2        1 UNL1     -0.2702
     9 N         7.374085   8.930471   -0.890174 N.am        1 UNL1     -0.2772
     10 C         6.582228   8.324865   -1.838607 C.2        1 UNL1     0.1049
     11 C         6.003293   7.194055   -1.477603 C.2        1 UNL1     0.0801
     12 C         4.751229   8.783053   -3.480204 C.ar        1 UNL1     0.0753
     13 C         4.065127   7.664773   -2.908083 C.ar        1 UNL1     0.0305
     14 C         4.728474   6.754854   -1.976918 C.2        1 UNL1     0.0924
     15 N         6.220815   6.416975   -0.402726 N.pl3        1 UNL1     -0.3170
     16 C         5.45092   5.212742   -0.56807 C.3        1 UNL1     0.1275
     17 N         4.284513   5.625646   -1.432204 N.2        1 UNL1     -0.2557
     18 C         6.285569   4.254858   -1.412771 C.3        1 UNL1     0.0016
     19 C         7.630096   4.051971   -0.73257 C.3        1 UNL1     0.0026
     20 N         7.402978   3.512584   0.601037 N.3        1 UNL1     -0.3018
     21 C         6.55798   4.335472   1.468909 C.3        1 UNL1     0.0026
     22 C         5.211139   4.522663   0.768285 C.3        1 UNL1     0.0016
     23 C         8.6125   3.005125   1.217628 C.3        1 UNL1     0.0012
     24 C         8.362847   2.668164   2.696103 C.3        1 UNL1     -0.0339
     25 C         7.660193   1.309517   2.85235 C.3        1 UNL1     -0.0615
     26 C         9.669801   2.713676   3.468489 C.3        1 UNL1     -0.0615
     27 C         4.152185   9.574369   -4.457488 C.ar        1 UNL1     0.1347
     28 C         2.891544   9.322887   -4.968947 C.ar        1 UNL1     0.0342
     29 C         2.215838   8.246359   -4.356024 C.ar        1 UNL1     0.1435
     30 C         2.789334   7.467045   -3.350542 C.ar        1 UNL1     0.0774
     31 O         1.0245   7.807515   -4.817688 O.3        1 UNL1     -0.4436
     32 C         0.898426   6.478365   -4.290108 C.3        1 UNL1     0.3143
     33 C         1.798247   6.44896   -3.071228 C.2        1 UNL1     0.2504
     34 C         2.288412   9.969008   -6.18503 C.3        1 UNL1     -0.0327
     35 O         -0.447002   6.332889   -3.819031 O.2        1 UNL1     -0.4528
     36 C         -1.300414   2.656758   -4.226264 C.3        1 UNL1     0.0854
     37 C         -0.568703   1.3923   -3.6319 C.3        1 UNL1     0.0236
     38 C         -1.505154   0.407765   -2.78014 C.3        1 UNL1     0.1131
     39 C         -2.41539   0.992904   -1.626298 C.3        1 UNL1     0.0200
     40 C         -1.808796   2.127958   -0.565102 C.3        1 UNL1     0.0661
     41 C         -0.346681   2.010243   0.286937 C.3        1 UNL1     0.0091
     42 C         0.82694   3.314575   0.822414 C.3        1 UNL1     0.0661
     43 C         6.15572   9.018745   -3.062933 C.2        1 UNL1     0.2131
     44 O         6.957017   9.653296   -3.724753 O.2        1 UNL1     -0.2851
     45 O         4.870646   10.670997   -4.929356 O.3        1 UNL1     -0.5056
     46 O         1.705041   5.756688   -2.082327 O.2        1 UNL1     -0.2836
     47 C         0.147868   5.531513   2.142211 C.3        1 UNL1     -0.0566
     48 O         0.949742   2.795642   2.206157 O.3        1 UNL1     -0.3909
     49 C         0.478454   0.893024   -0.311785 C.3        1 UNL1     -0.0577
     50 O         -1.960518   3.432926   -1.086411 O.3        1 UNL1     -0.3910
     51 O         -2.628107   2.85848   -3.797349 O.3        1 UNL1     -0.3753
     52 C         0.900554   1.716759   -3.206507 C.3        1 UNL1     -0.0564
     53 O         -0.889963   -0.937769   -2.528339 O.3        1 UNL1     -0.4608
     54 C         0.364344   -1.156292   -2.021494 C.2        1 UNL1     0.3042
     55 O         1.263194   -1.83363   -2.518606 O.2        1 UNL1     -0.2512
     56 C         0.633363   -0.416248   -0.742166 C.3        1 UNL1     0.0332
     57 C         -3.868868   1.250231   -2.242218 C.3        1 UNL1     -0.0567
     58 C         1.478326   5.525696   -5.3614 C.3        1 UNL1     0.0210
     59 C         -3.299888   3.951931   -4.421001 C.3        1 UNL1     0.0372
     60 C         -0.585222   3.947182   -4.030133 C.2        1 UNL1     -0.0208
     61 C         -1.041776   5.137886   -3.639588 C.2        1 UNL1     0.0882
     62 H         1.031601   5.369346   0.198751 H        1 UNL1     0.0365
     63 H         2.41995   6.86662   0.228488 H        1 UNL1     0.0576
     64 H         4.147265   6.732047   2.777027 H        1 UNL1     0.0615
     65 H         4.239422   8.550714   0.238953 H        1 UNL1     0.0622
     66 H         -1.315281   2.482386   -5.311354 H        1 UNL1     0.0645
     67 H         -0.344967   0.771433   -4.516787 H        1 UNL1     0.0362
     68 H         -2.203213   0.089342   -3.569344 H        1 UNL1     0.0741
     69 H         -2.705892   0.184658   -0.968456 H        1 UNL1     0.0359
     70 H         -2.566561   2.061456   0.238907 H        1 UNL1     0.0600
     71 H         -0.705549   1.537739   1.222304 H        1 UNL1     0.0348
     72 H         -0.125968   3.826632   0.624728 H        1 UNL1     0.0602
     73 H         0.412707   3.849992   -4.379333 H        1 UNL1     0.0628
     74 H         -2.031378   5.30985   -3.214908 H        1 UNL1     0.1022
     75 H         7.369255   10.139663   2.475294 H        1 UNL1     0.0279
     76 H         7.246672   8.551885   3.121231 H        1 UNL1     0.0279
     77 H         8.209803   8.906416   1.630599 H        1 UNL1     0.0279
     78 H         7.849385   8.194183   -0.372441 H        1 UNL1     0.1553
     79 H         7.054778   6.457005   0.153903 H        1 UNL1     0.1484
     80 H         5.743686   3.30737   -1.519514 H        1 UNL1     0.0317
     81 H         6.429635   4.649237   -2.424385 H        1 UNL1     0.0317
     82 H         8.209093   4.986167   -0.68838 H        1 UNL1     0.0428
     83 H         8.209819   3.367276   -1.35238 H        1 UNL1     0.0428
     84 H         6.33775   3.870904   2.43508 H        1 UNL1     0.0428
     85 H         7.045337   5.283951   1.733837 H        1 UNL1     0.0428
     86 H         4.57776   5.012368   1.484531 H        1 UNL1     0.0317
     87 H         4.725669   3.549806   0.623493 H        1 UNL1     0.0317
     88 H         8.902842   2.08508   0.693688 H        1 UNL1     0.0429
     89 H         9.44357   3.713675   1.107844 H        1 UNL1     0.0429
     90 H         7.726234   3.443458   3.138659 H        1 UNL1     0.0308
     91 H         7.349447   1.13917   3.887493 H        1 UNL1     0.0233
     92 H         6.78523   1.249936   2.200814 H        1 UNL1     0.0233
     93 H         8.307728   0.469809   2.572306 H        1 UNL1     0.0233
     94 H         9.474924   2.901655   4.529867 H        1 UNL1     0.0233
     95 H         10.186477   1.753403   3.385517 H        1 UNL1     0.0233
     96 H         10.327957   3.502239   3.093035 H        1 UNL1     0.0233
     97 H         2.836834   9.725505   -7.09011 H        1 UNL1     0.0280
     98 H         1.256495   9.638027   -6.360684 H        1 UNL1     0.0280
     99 H         2.293746   11.06441   -6.0619 H        1 UNL1     0.0280
     100 H         4.973118   10.698976   -5.864417 H        1 UNL1     0.2922
     101 H         0.299789   5.133971   3.145474 H        1 UNL1     0.0236
     102 H         -0.834562   5.277065   1.74589 H        1 UNL1     0.0236
     103 H         0.122183   6.625907   2.275757 H        1 UNL1     0.0236
     104 H         1.75842   3.182227   2.595466 H        1 UNL1     0.2098
     105 H         0.510784   0.891249   -1.398414 H        1 UNL1     0.0234
     106 H         1.484938   0.801247   0.09625 H        1 UNL1     0.0234
     107 H         0.0   -0.0   0.0 H        1 UNL1     0.0234
     108 H         -2.478307   3.946431   -0.436814 H        1 UNL1     0.2098
     109 H         1.097559   2.797646   -3.182345 H        1 UNL1     0.0234
     110 H         1.178357   1.272088   -2.244823 H        1 UNL1     0.0234
     111 H         1.628603   1.29767   -3.913795 H        1 UNL1     0.0234
     112 H         -0.261516   -0.424005   -0.112502 H        1 UNL1     0.0342
     113 H         1.491006   -0.821405   -0.207246 H        1 UNL1     0.0342
     114 H         0.860402   0.629346   -0.991869 H        1 UNL1     0.0342
     115 H         -3.982611   0.782363   -3.229816 H        1 UNL1     0.0234
     116 H         -4.687003   0.893195   -1.613545 H        1 UNL1     0.0234
     117 H         -4.062771   2.309298   -2.484541 H        1 UNL1     0.0234
     118 H         0.7612   5.335675   -6.179096 H        1 UNL1     0.0309
     119 H         2.421502   5.88185   -5.787753 H        1 UNL1     0.0309
     120 H         1.682813   4.524322   -4.967013 H        1 UNL1     0.0309
     121 H         -3.476609   3.680215   -5.461335 H        1 UNL1     0.0524
     122 H         -4.280472   4.158035   -3.960553 H        1 UNL1     0.0524
     123 H         -2.689234   4.848708   -4.366351 H        1 UNL1     0.0524
@<TRIPOS>BOND
     1     1     2    1
     2     1    42    1
     3     2     3    2
     4     3     4    1
     5     4     5    2
     6     5     7    1
     7     6    75    1
     8     6    76    1
     9     6    77    1
    10     7     9   am
    11     9    10    1
    12    10    11    2
    13    10    43    1
    14    11    14    1
    15    11    15    1
    16    12    13   ar
    17    12    27   ar
    18    12    43    1
    19    13    14    1
    20    13    30   ar
    21    14    17    2
    22    15    16    1
    23    16    17    1
    24    16    18    1
    25    16    22    1
    26    18    19    1
    27    19    20    1
    28    20    21    1
    29    21    22    1
    30    23    24    1
    31    23    88    1
    32    23    89    1
    33    24    25    1
    34    24    26    1
    35    24    90    1
    36    25    91    1
    37    25    92    1
    38    25    93    1
    39    26    94    1
    40    26    95    1
    41    26    96    1
    42    27    28   ar
    43    28    29   ar
    44    29    30   ar
    45    29    31    1
    46    30    33    1
    47    31    32    1
    48    32    33    1
    49    32    35    1
    50    34    97    1
    51    34    98    1
    52    34    99    1
    53    35    61    1
    54    36    37    1
    55    36    60    1
    56    37    38    1
    57    38    39    1
    58    39    40    1
    59    40    41    1
    60    41    42    1
    61    45   100    1
    62    47   101    1
    63    47   102    1
    64    47   103    1
    65    48   104    1
    66    49   105    1
    67    49   106    1
    68    49   107    1
    69    50   108    1
    70    51    59    1
    71    52   109    1
    72    52   110    1
    73    52   111    1
    74    53    54    1
    75    54    55    2
    76    54    56    1
    77    56   112    1
    78    56   113    1
    79    56   114    1
    80    57   115    1
    81    57   116    1
    82    57   117    1
    83    58   118    1
    84    58   119    1
    85    58   120    1
    86    59   121    1
    87    59   122    1
    88    59   123    1
    89    60    61    2
    90     1    47    1
    91     1    62    1
    92     2    63    1
    93     3    64    1
    94     4    65    1
    95     5     6    1
    96     7     8    2
    97     9    78    1
    98    15    79    1
    99    18    80    1
   100    18    81    1
   101    19    82    1
   102    19    83    1
   103    20    23    1
   104    21    84    1
   105    21    85    1
   106    22    86    1
   107    22    87    1
   108    27    45    1
   109    28    34    1
   110    32    58    1
   111    33    46    2
   112    36    51    1
   113    36    66    1
   114    37    52    1
   115    37    67    1
   116    38    53    1
   117    38    68    1
   118    42    48    1
   119    42    72    1
   120    43    44    2
   121    60    73    1
   122    61    74    1
   123    39    69    1
   124    39    57    1
   125    40    70    1
   126    40    50    1
   127    41    71    1
   128    41    49    1
