@<TRIPOS>MOLECULE
*****
 123 128 0 0 0
SMALL
GASTEIGER

@<TRIPOS>ATOM
     1 C         5.164136   1.769408   0.447402 C.3        1 UNL1     0.0009
     2 C         6.59019   2.581574   -0.415032 C.2        1 UNL1     -0.0787
     3 C         7.866669   2.488768   -1.091814 C.2        1 UNL1     -0.0649
     4 C         8.7326   3.727664   -1.854479 C.2        1 UNL1     -0.0542
     5 C         9.743316   4.024723   -2.801732 C.2        1 UNL1     0.0115
     6 C         10.86652   3.404111   -3.677276 C.3        1 UNL1     -0.0348
     7 C         9.82746   5.508552   -3.408493 C.2        1 UNL1     0.2441
     8 O         10.651257   6.333383   -3.037631 O.2        1 UNL1     -0.2702
     9 N         9.066353   5.712886   -4.572587 N.am        1 UNL1     -0.2772
     10 C         7.784845   6.094298   -4.247652 C.2        1 UNL1     0.1049
     11 C         6.945519   5.119393   -3.948798 C.2        1 UNL1     0.0801
     12 C         6.492206   7.695244   -2.825193 C.ar        1 UNL1     0.0753
     13 C         5.741574   6.564135   -2.371593 C.ar        1 UNL1     0.0305
     14 C         5.858189   5.259129   -3.01844 C.2        1 UNL1     0.0924
     15 N         7.072106   3.790972   -4.109423 N.pl3        1 UNL1     -0.3170
     16 C         5.807421   3.186593   -3.784538 C.3        1 UNL1     0.1275
     17 N         5.175652   4.138934   -2.798821 N.2        1 UNL1     -0.2557
     18 C         4.943485   3.242649   -5.040792 C.3        1 UNL1     0.0016
     19 C         5.691358   2.561973   -6.176115 C.3        1 UNL1     0.0026
     20 N         5.970354   1.184842   -5.793101 N.3        1 UNL1     -0.3018
     21 C         6.745   1.027111   -4.560456 C.3        1 UNL1     0.0026
     22 C         5.973173   1.714121   -3.43254 C.3        1 UNL1     0.0016
     23 C         6.408574   0.367467   -6.90688 C.3        1 UNL1     0.0012
     24 C         5.245722   0.113668   -7.879052 C.3        1 UNL1     -0.0339
     25 C         5.326566   1.037049   -9.105791 C.3        1 UNL1     -0.0615
     26 C         5.214204   -1.350259   -8.282416 C.3        1 UNL1     -0.0615
     27 C         6.287108   8.961926   -2.283372 C.ar        1 UNL1     0.1347
     28 C         5.335282   9.227296   -1.315045 C.ar        1 UNL1     0.0342
     29 C         4.642281   8.089881   -0.848998 C.ar        1 UNL1     0.1435
     30 C         4.862513   6.808914   -1.356778 C.ar        1 UNL1     0.0774
     31 O         3.608236   8.198977   0.013472 O.3        1 UNL1     -0.4436
     32 C         2.890322   6.96331   -0.12291 C.3        1 UNL1     0.3143
     33 C         3.90298   5.974465   -0.664133 C.2        1 UNL1     0.2504
     34 C         4.886769   10.591447   -0.87004 C.3        1 UNL1     -0.0327
     35 O         2.542805   6.524733   1.196231 O.2        1 UNL1     -0.4528
     36 C         -0.695746   4.579643   0.826773 C.3        1 UNL1     0.0854
     37 C         -1.003707   3.318132   -0.068366 C.3        1 UNL1     0.0236
     38 C         -1.59237   2.054426   0.724267 C.3        1 UNL1     0.1131
     39 C         -0.853288   1.525995   2.019176 C.3        1 UNL1     0.0200
     40 C         0.80877   1.387122   2.045966 C.3        1 UNL1     0.0661
     41 C         1.761106   0.622535   0.86865 C.3        1 UNL1     0.0091
     42 C         3.462294   0.992142   0.290072 C.3        1 UNL1     0.0661
     43 C         7.433373   7.491727   -3.954372 C.2        1 UNL1     0.2131
     44 O         7.82343   8.391638   -4.676005 O.2        1 UNL1     -0.2851
     45 O         7.091222   10.00044   -2.748481 O.3        1 UNL1     -0.5056
     46 O         3.924935   4.770962   -0.533925 O.2        1 UNL1     -0.2836
     47 C         5.574612   1.34107   1.881981 C.3        1 UNL1     -0.0566
     48 O         3.917216   -0.417174   0.367486 O.3        1 UNL1     -0.3909
     49 C         0.917195   0.386986   -0.364162 C.3        1 UNL1     -0.0577
     50 O         1.407434   2.607264   2.43401 O.3        1 UNL1     -0.3910
     51 O         -0.807063   4.389029   2.219147 O.3        1 UNL1     -0.3753
     52 C         0.031403   3.162229   -1.229913 C.3        1 UNL1     -0.0564
     53 O         -2.198533   1.013312   -0.170705 O.3        1 UNL1     -0.4608
     54 C         -2.393612   -0.302489   0.158752 C.2        1 UNL1     0.3042
     55 O         -1.810674   -1.282486   -0.303446 O.2        1 UNL1     -0.2512
     56 C         -3.404769   -0.505421   1.25104 C.3        1 UNL1     0.0332
     57 C         -1.56609   2.191685   3.286829 C.3        1 UNL1     -0.0567
     58 C         1.804836   7.204417   -1.197674 C.3        1 UNL1     0.0210
     59 C         -1.118598   5.566531   2.962315 C.3        1 UNL1     0.0372
     60 C         0.628672   5.214138   0.584919 C.2        1 UNL1     -0.0208
     61 C         1.547319   5.652766   1.446567 C.2        1 UNL1     0.0882
     62 H         4.685036   2.751632   0.539116 H        1 UNL1     0.0365
     63 H         6.320629   3.634262   -0.307068 H        1 UNL1     0.0576
     64 H         8.32628   1.523835   -1.317139 H        1 UNL1     0.0615
     65 H         8.244855   4.640986   -1.503153 H        1 UNL1     0.0622
     66 H         -1.446039   5.323268   0.523247 H        1 UNL1     0.0645
     67 H         -1.875735   3.624206   -0.672059 H        1 UNL1     0.0362
     68 H         -2.538117   2.487382   1.084317 H        1 UNL1     0.0741
     69 H         -1.179047   0.513512   2.217081 H        1 UNL1     0.0359
     70 H         0.930799   0.726972   2.92595 H        1 UNL1     0.0600
     71 H         1.812475   -0.398579   1.294847 H        1 UNL1     0.0348
     72 H         3.362914   1.479613   1.270791 H        1 UNL1     0.0602
     73 H         0.736821   5.412181   -0.452545 H        1 UNL1     0.0628
     74 H         1.539857   5.441701   2.516443 H        1 UNL1     0.1022
     75 H         10.865061   2.291157   -3.58581 H        1 UNL1     0.0279
     76 H         10.781193   3.550979   -4.751621 H        1 UNL1     0.0279
     77 H         11.874683   3.650257   -3.312968 H        1 UNL1     0.0279
     78 H         9.003318   4.842857   -5.097138 H        1 UNL1     0.1553
     79 H         7.733735   3.365849   -4.732682 H        1 UNL1     0.1484
     80 H         3.985896   2.747796   -4.838534 H        1 UNL1     0.0317
     81 H         4.710383   4.278566   -5.309474 H        1 UNL1     0.0317
     82 H         6.617704   3.097088   -6.431945 H        1 UNL1     0.0428
     83 H         5.058313   2.614878   -7.062402 H        1 UNL1     0.0428
     84 H         6.872173   -0.015444   -4.252694 H        1 UNL1     0.0428
     85 H         7.772671   1.399313   -4.673038 H        1 UNL1     0.0428
     86 H         6.498419   1.465557   -2.529036 H        1 UNL1     0.0317
     87 H         4.996771   1.232514   -3.299162 H        1 UNL1     0.0317
     88 H         7.197872   0.91262   -7.440839 H        1 UNL1     0.0429
     89 H         6.847979   -0.576667   -6.560024 H        1 UNL1     0.0429
     90 H         4.297486   0.302334   -7.361881 H        1 UNL1     0.0308
     91 H         6.27788   0.916185   -9.632571 H        1 UNL1     0.0233
     92 H         4.505423   0.833681   -9.797148 H        1 UNL1     0.0233
     93 H         5.244353   2.09709   -8.836739 H        1 UNL1     0.0233
     94 H         4.552387   -1.490498   -9.143908 H        1 UNL1     0.0233
     95 H         6.216393   -1.680249   -8.569968 H        1 UNL1     0.0233
     96 H         4.855658   -1.981833   -7.464781 H        1 UNL1     0.0233
     97 H         4.060799   10.539562   -0.166967 H        1 UNL1     0.0280
     98 H         5.685114   11.142202   -0.355677 H        1 UNL1     0.0280
     99 H         4.559307   11.176021   -1.745333 H        1 UNL1     0.0280
     100 H         6.619412   10.762023   -3.036594 H        1 UNL1     0.2922
     101 H         4.714791   0.915214   2.398713 H        1 UNL1     0.0236
     102 H         6.03821   2.144711   2.453139 H        1 UNL1     0.0236
     103 H         6.3249   0.532862   1.874133 H        1 UNL1     0.0236
     104 H         4.339427   -0.543336   1.23972 H        1 UNL1     0.2098
     105 H         0.695995   1.285128   -0.935321 H        1 UNL1     0.0234
     106 H         1.284067   -0.399346   -1.023717 H        1 UNL1     0.0234
     107 H         0.0   -0.0   0.0 H        1 UNL1     0.0234
     108 H         1.254064   3.247871   1.712991 H        1 UNL1     0.2098
     109 H         1.061327   3.065159   -0.859041 H        1 UNL1     0.0234
     110 H         -0.196817   2.326817   -1.900544 H        1 UNL1     0.0234
     111 H         0.034578   4.040054   -1.88973 H        1 UNL1     0.0234
     112 H         -3.506268   -1.572574   1.470649 H        1 UNL1     0.0342
     113 H         -3.155055   0.056412   2.149833 H        1 UNL1     0.0342
     114 H         -4.376884   -0.141826   0.890546 H        1 UNL1     0.0342
     115 H         -2.653171   2.032667   3.27436 H        1 UNL1     0.0234
     116 H         -1.192359   1.830262   4.246906 H        1 UNL1     0.0234
     117 H         -1.512028   3.293944   3.293442 H        1 UNL1     0.0234
     118 H         0.903567   7.683332   -0.776533 H        1 UNL1     0.0309
     119 H         2.163232   7.798022   -2.044662 H        1 UNL1     0.0309
     120 H         1.419648   6.27116   -1.622842 H        1 UNL1     0.0309
     121 H         -0.284284   6.258236   2.849083 H        1 UNL1     0.0524
     122 H         -2.022831   6.072453   2.5849 H        1 UNL1     0.0524
     123 H         -1.263087   5.321972   4.010841 H        1 UNL1     0.0524
@<TRIPOS>BOND
     1     1     2    1
     2     1    42    1
     3     2     3    2
     4     3     4    1
     5     4     5    2
     6     5     7    1
     7     6    75    1
     8     6    76    1
     9     6    77    1
    10     7     9   am
    11     9    10    1
    12    10    11    2
    13    10    43    1
    14    11    14    1
    15    11    15    1
    16    12    13   ar
    17    12    27   ar
    18    12    43    1
    19    13    14    1
    20    13    30   ar
    21    14    17    2
    22    15    16    1
    23    16    17    1
    24    16    18    1
    25    16    22    1
    26    18    19    1
    27    19    20    1
    28    20    21    1
    29    21    22    1
    30    23    24    1
    31    23    88    1
    32    23    89    1
    33    24    25    1
    34    24    26    1
    35    24    90    1
    36    25    91    1
    37    25    92    1
    38    25    93    1
    39    26    94    1
    40    26    95    1
    41    26    96    1
    42    27    28   ar
    43    28    29   ar
    44    29    30   ar
    45    29    31    1
    46    30    33    1
    47    31    32    1
    48    32    33    1
    49    32    35    1
    50    34    97    1
    51    34    98    1
    52    34    99    1
    53    35    61    1
    54    36    37    1
    55    36    60    1
    56    37    38    1
    57    38    39    1
    58    39    40    1
    59    40    41    1
    60    41    42    1
    61    45   100    1
    62    47   101    1
    63    47   102    1
    64    47   103    1
    65    48   104    1
    66    49   105    1
    67    49   106    1
    68    49   107    1
    69    50   108    1
    70    51    59    1
    71    52   109    1
    72    52   110    1
    73    52   111    1
    74    53    54    1
    75    54    55    2
    76    54    56    1
    77    56   112    1
    78    56   113    1
    79    56   114    1
    80    57   115    1
    81    57   116    1
    82    57   117    1
    83    58   118    1
    84    58   119    1
    85    58   120    1
    86    59   121    1
    87    59   122    1
    88    59   123    1
    89    60    61    2
    90     1    47    1
    91     1    62    1
    92     2    63    1
    93     3    64    1
    94     4    65    1
    95     5     6    1
    96     7     8    2
    97     9    78    1
    98    15    79    1
    99    18    80    1
   100    18    81    1
   101    19    82    1
   102    19    83    1
   103    20    23    1
   104    21    84    1
   105    21    85    1
   106    22    86    1
   107    22    87    1
   108    27    45    1
   109    28    34    1
   110    32    58    1
   111    33    46    2
   112    36    51    1
   113    36    66    1
   114    37    52    1
   115    37    67    1
   116    38    53    1
   117    38    68    1
   118    42    48    1
   119    42    72    1
   120    43    44    2
   121    60    73    1
   122    61    74    1
   123    39    69    1
   124    39    57    1
   125    40    70    1
   126    40    50    1
   127    41    71    1
   128    41    49    1
