@<TRIPOS>MOLECULE
*****
 123 128 0 0 0
SMALL
GASTEIGER

@<TRIPOS>ATOM
     1 C         1.777219   -1.731711   -4.882821 C.3        1 UNL1     0.0009
     2 C         1.859064   -1.380053   -6.701247 C.2        1 UNL1     -0.0787
     3 C         1.380445   -1.610812   -8.047991 C.2        1 UNL1     -0.0649
     4 C         1.83147   -0.802285   -9.46546 C.2        1 UNL1     -0.0542
     5 C         1.458531   -0.499735   -10.798299 C.2        1 UNL1     0.0115
     6 C         0.448153   -0.839427   -11.928374 C.3        1 UNL1     -0.0348
     7 C         2.172859   0.728702   -11.545069 C.2        1 UNL1     0.2441
     8 O         3.061172   0.578622   -12.372656 O.2        1 UNL1     -0.2702
     9 N         1.534036   1.970029   -11.38025 N.am        1 UNL1     -0.2772
     10 C         1.996429   2.601538   -10.248565 C.2        1 UNL1     0.1049
     11 C         1.437675   2.236555   -9.108915 C.2        1 UNL1     0.0801
     12 C         4.098341   3.247015   -9.055812 C.ar        1 UNL1     0.0753
     13 C         3.527361   2.646867   -7.888588 C.ar        1 UNL1     0.0305
     14 C         2.124724   2.239639   -7.845851 C.2        1 UNL1     0.0924
     15 N         0.339088   1.495643   -8.883782 N.pl3        1 UNL1     -0.3170
     16 C         0.062672   1.537259   -7.472359 C.3        1 UNL1     0.1275
     17 N         1.409345   1.764765   -6.830147 N.2        1 UNL1     -0.2557
     18 C         -0.751331   2.800292   -7.20807 C.3        1 UNL1     0.0016
     19 C         -1.98966   2.774174   -8.0898 C.3        1 UNL1     0.0026
     20 N         -2.760958   1.578872   -7.777742 N.3        1 UNL1     -0.3018
     21 C         -2.04148   0.314113   -7.942382 C.3        1 UNL1     0.0026
     22 C         -0.804012   0.360302   -7.044365 C.3        1 UNL1     0.0016
     23 C         -4.096838   1.607186   -8.339228 C.3        1 UNL1     0.0012
     24 C         -4.964431   2.647164   -7.612945 C.3        1 UNL1     -0.0339
     25 C         -4.9811   3.988732   -8.363927 C.3        1 UNL1     -0.0615
     26 C         -6.367776   2.103384   -7.408728 C.3        1 UNL1     -0.0615
     27 C         5.400183   3.742277   -9.049366 C.ar        1 UNL1     0.1347
     28 C         6.210597   3.729674   -7.928152 C.ar        1 UNL1     0.0342
     29 C         5.644839   3.089992   -6.804813 C.ar        1 UNL1     0.1435
     30 C         4.355232   2.556956   -6.807357 C.ar        1 UNL1     0.0774
     31 O         6.265643   3.09333   -5.604981 O.3        1 UNL1     -0.4436
     32 C         5.227351   2.798016   -4.658613 C.3        1 UNL1     0.3143
     33 C         4.158442   2.077572   -5.455236 C.2        1 UNL1     0.2504
     34 C         7.514267   4.462383   -7.774262 C.3        1 UNL1     -0.0327
     35 O         5.759773   1.851685   -3.723607 O.2        1 UNL1     -0.4528
     36 C         3.959965   2.50218   -0.445554 C.3        1 UNL1     0.0854
     37 C         2.413155   2.485912   -0.13792 C.3        1 UNL1     0.0236
     38 C         1.97163   1.50984   1.055429 C.3        1 UNL1     0.1131
     39 C         2.453187   0.003065   1.056264 C.3        1 UNL1     0.0200
     40 C         2.416509   -0.896411   -0.348028 C.3        1 UNL1     0.0661
     41 C         1.093623   -1.043277   -1.3997 C.3        1 UNL1     0.0091
     42 C         1.039396   -1.269212   -3.219429 C.3        1 UNL1     0.0661
     43 C         3.227697   3.405486   -10.247083 C.2        1 UNL1     0.2131
     44 O         3.437372   4.216448   -11.130889 O.2        1 UNL1     -0.2851
     45 O         5.895718   4.269485   -10.240136 O.3        1 UNL1     -0.5056
     46 O         3.342596   1.272308   -5.065625 O.2        1 UNL1     -0.2836
     47 C         2.4163   -3.111716   -4.571142 C.3        1 UNL1     -0.0566
     48 O         0.047279   -2.370182   -3.167595 O.3        1 UNL1     -0.3909
     49 C         0.077027   0.022816   -1.056961 C.3        1 UNL1     -0.0577
     50 O         3.605893   -0.715923   -1.089993 O.3        1 UNL1     -0.3910
     51 O         4.73381   1.541034   0.236204 O.3        1 UNL1     -0.3753
     52 C         1.559642   2.648233   -1.437965 C.3        1 UNL1     -0.0564
     53 O         0.581286   1.767107   1.558502 O.3        1 UNL1     -0.4608
     54 C         -0.185736   0.878228   2.265256 C.2        1 UNL1     0.3042
     55 O         -1.210777   0.311611   1.888328 O.2        1 UNL1     -0.2512
     56 C         0.366001   0.555975   3.624834 C.3        1 UNL1     0.0332
     57 C         3.768777   -0.082293   1.961864 C.3        1 UNL1     -0.0567
     58 C         4.665425   4.159325   -4.186801 C.3        1 UNL1     0.0210
     59 C         6.09063   1.917669   0.466535 C.3        1 UNL1     0.0372
     60 C         4.315625   2.39578   -1.886853 C.2        1 UNL1     -0.0208
     61 C         5.241478   1.654074   -2.49629 C.2        1 UNL1     0.0882
     62 H         2.560087   -0.980769   -4.721836 H        1 UNL1     0.0365
     63 H         2.711788   -0.698929   -6.73871 H        1 UNL1     0.0576
     64 H         0.521667   -2.255588   -8.247669 H        1 UNL1     0.0615
     65 H         2.733967   -0.256071   -9.178001 H        1 UNL1     0.0622
     66 H         4.294591   3.498965   -0.125411 H        1 UNL1     0.0645
     67 H         2.217641   3.477558   0.305897 H        1 UNL1     0.0362
     68 H         2.505935   1.987375   1.890894 H        1 UNL1     0.0741
     69 H         1.814919   -0.565927   1.719037 H        1 UNL1     0.0359
     70 H         2.506615   -1.915002   0.075545 H        1 UNL1     0.0600
     71 H         0.611036   -1.94685   -0.978247 H        1 UNL1     0.0348
     72 H         2.050084   -1.569145   -2.906595 H        1 UNL1     0.0602
     73 H         3.781792   3.13286   -2.433648 H        1 UNL1     0.0628
     74 H         5.789979   0.839833   -2.02153 H        1 UNL1     0.1022
     75 H         -0.278515   -1.614534   -11.584578 H        1 UNL1     0.0279
     76 H         -0.205601   -0.03308   -12.253149 H        1 UNL1     0.0279
     77 H         0.919922   -1.347957   -12.781915 H        1 UNL1     0.0279
     78 H         0.533043   1.826773   -11.263773 H        1 UNL1     0.1553
     79 H         -0.371786   1.330067   -9.572386 H        1 UNL1     0.1484
     80 H         -1.017451   2.838169   -6.144815 H        1 UNL1     0.0317
     81 H         -0.158992   3.698026   -7.415098 H        1 UNL1     0.0317
     82 H         -1.729683   2.809815   -9.158002 H        1 UNL1     0.0428
     83 H         -2.554626   3.684459   -7.886715 H        1 UNL1     0.0428
     84 H         -2.616142   -0.561865   -7.62578 H        1 UNL1     0.0428
     85 H         -1.805981   0.111999   -8.996426 H        1 UNL1     0.0428
     86 H         -0.377628   -0.624724   -7.08805 H        1 UNL1     0.0317
     87 H         -1.106281   0.459686   -5.994673 H        1 UNL1     0.0317
     88 H         -4.017233   1.894952   -9.395707 H        1 UNL1     0.0429
     89 H         -4.562508   0.61365   -8.31073 H        1 UNL1     0.0429
     90 H         -4.558882   2.814509   -6.608088 H        1 UNL1     0.0308
     91 H         -5.347632   3.86697   -9.387611 H        1 UNL1     0.0233
     92 H         -5.608339   4.715556   -7.842481 H        1 UNL1     0.0233
     93 H         -3.984092   4.440193   -8.434595 H        1 UNL1     0.0233
     94 H         -7.036138   2.901389   -7.067675 H        1 UNL1     0.0233
     95 H         -6.759617   1.716232   -8.353469 H        1 UNL1     0.0233
     96 H         -6.38059   1.300855   -6.665929 H        1 UNL1     0.0233
     97 H         7.94423   4.325916   -6.786467 H        1 UNL1     0.0280
     98 H         8.273744   4.109248   -8.484014 H        1 UNL1     0.0280
     99 H         7.352626   5.5409   -7.934791 H        1 UNL1     0.0280
     100 H         6.232176   5.145585   -10.170362 H        1 UNL1     0.2922
     101 H         2.401363   -3.289414   -3.496034 H        1 UNL1     0.0236
     102 H         3.41522   -3.226082   -4.990739 H        1 UNL1     0.0236
     103 H         1.834152   -3.944152   -5.0005 H        1 UNL1     0.0236
     104 H         0.541492   -3.213189   -3.175502 H        1 UNL1     0.2098
     105 H         0.366511   1.029504   -1.347806 H        1 UNL1     0.0234
     106 H         -0.937544   -0.190528   -1.393203 H        1 UNL1     0.0234
     107 H         -0.0   0.0   0.0 H        1 UNL1     0.0234
     108 H         3.635847   0.220129   -1.366899 H        1 UNL1     0.2098
     109 H         1.753706   1.847876   -2.165619 H        1 UNL1     0.0234
     110 H         0.483965   2.71188   -1.241468 H        1 UNL1     0.0234
     111 H         1.790964   3.586572   -1.959458 H        1 UNL1     0.0234
     112 H         -0.286517   -0.162177   4.130623 H        1 UNL1     0.0342
     113 H         1.389066   0.186308   3.574551 H        1 UNL1     0.0342
     114 H         0.374753   1.479889   4.219369 H        1 UNL1     0.0342
     115 H         3.572759   0.22876   2.997244 H        1 UNL1     0.0234
     116 H         4.219618   -1.076041   1.997317 H        1 UNL1     0.0234
     117 H         4.552533   0.636964   1.668031 H        1 UNL1     0.0234
     118 H         5.278534   4.60519   -3.384113 H        1 UNL1     0.0309
     119 H         4.557294   4.884465   -4.999625 H        1 UNL1     0.0309
     120 H         3.675024   4.068817   -3.727432 H        1 UNL1     0.0309
     121 H         6.564646   2.053297   -0.5052 H        1 UNL1     0.0524
     122 H         6.172935   2.872404   1.012193 H        1 UNL1     0.0524
     123 H         6.604967   1.144174   1.029791 H        1 UNL1     0.0524
@<TRIPOS>BOND
     1     1     2    1
     2     1    42    1
     3     2     3    2
     4     3     4    1
     5     4     5    2
     6     5     7    1
     7     6    75    1
     8     6    76    1
     9     6    77    1
    10     7     9   am
    11     9    10    1
    12    10    11    2
    13    10    43    1
    14    11    14    1
    15    11    15    1
    16    12    13   ar
    17    12    27   ar
    18    12    43    1
    19    13    14    1
    20    13    30   ar
    21    14    17    2
    22    15    16    1
    23    16    17    1
    24    16    18    1
    25    16    22    1
    26    18    19    1
    27    19    20    1
    28    20    21    1
    29    21    22    1
    30    23    24    1
    31    23    88    1
    32    23    89    1
    33    24    25    1
    34    24    26    1
    35    24    90    1
    36    25    91    1
    37    25    92    1
    38    25    93    1
    39    26    94    1
    40    26    95    1
    41    26    96    1
    42    27    28   ar
    43    28    29   ar
    44    29    30   ar
    45    29    31    1
    46    30    33    1
    47    31    32    1
    48    32    33    1
    49    32    35    1
    50    34    97    1
    51    34    98    1
    52    34    99    1
    53    35    61    1
    54    36    37    1
    55    36    60    1
    56    37    38    1
    57    38    39    1
    58    39    40    1
    59    40    41    1
    60    41    42    1
    61    45   100    1
    62    47   101    1
    63    47   102    1
    64    47   103    1
    65    48   104    1
    66    49   105    1
    67    49   106    1
    68    49   107    1
    69    50   108    1
    70    51    59    1
    71    52   109    1
    72    52   110    1
    73    52   111    1
    74    53    54    1
    75    54    55    2
    76    54    56    1
    77    56   112    1
    78    56   113    1
    79    56   114    1
    80    57   115    1
    81    57   116    1
    82    57   117    1
    83    58   118    1
    84    58   119    1
    85    58   120    1
    86    59   121    1
    87    59   122    1
    88    59   123    1
    89    60    61    2
    90     1    47    1
    91     1    62    1
    92     2    63    1
    93     3    64    1
    94     4    65    1
    95     5     6    1
    96     7     8    2
    97     9    78    1
    98    15    79    1
    99    18    80    1
   100    18    81    1
   101    19    82    1
   102    19    83    1
   103    20    23    1
   104    21    84    1
   105    21    85    1
   106    22    86    1
   107    22    87    1
   108    27    45    1
   109    28    34    1
   110    32    58    1
   111    33    46    2
   112    36    51    1
   113    36    66    1
   114    37    52    1
   115    37    67    1
   116    38    53    1
   117    38    68    1
   118    42    48    1
   119    42    72    1
   120    43    44    2
   121    60    73    1
   122    61    74    1
   123    39    69    1
   124    39    57    1
   125    40    70    1
   126    40    50    1
   127    41    71    1
   128    41    49    1
