@<TRIPOS>MOLECULE
*****
 123 128 0 0 0
SMALL
GASTEIGER

@<TRIPOS>ATOM
     1 C         3.87375   3.669594   0.726687 C.3        1 UNL1     0.0009
     2 C         4.529006   5.274634   0.069783 C.2        1 UNL1     -0.0787
     3 C         5.558154   6.022443   -0.621362 C.2        1 UNL1     -0.0649
     4 C         5.532565   7.653535   -1.074399 C.2        1 UNL1     -0.0542
     5 C         6.09701   8.629116   -1.932724 C.2        1 UNL1     0.0115
     6 C         7.246722   8.901294   -2.941389 C.3        1 UNL1     -0.0348
     7 C         5.307181   10.006603   -2.168708 C.2        1 UNL1     0.2441
     8 O         5.618166   11.054492   -1.619396 O.2        1 UNL1     -0.2702
     9 N         4.401097   9.989348   -3.243354 N.am        1 UNL1     -0.2772
     10 C         3.168364   9.54364   -2.824979 C.2        1 UNL1     0.1049
     11 C         3.014552   8.233568   -2.759603 C.2        1 UNL1     0.0801
     12 C         1.43727   9.874186   -1.049765 C.ar        1 UNL1     0.0753
     13 C         1.461035   8.454145   -0.872205 C.ar        1 UNL1     0.0305
     14 C         2.154493   7.576928   -1.812768 C.2        1 UNL1     0.0924
     15 N         3.795152   7.247445   -3.233684 N.pl3        1 UNL1     -0.3170
     16 C         3.093152   6.00488   -3.0507 C.3        1 UNL1     0.1275
     17 N         2.197786   6.248478   -1.860446 N.2        1 UNL1     -0.2557
     18 C         2.165728   5.828749   -4.249267 C.3        1 UNL1     0.0016
     19 C         2.995873   5.899416   -5.521059 C.3        1 UNL1     0.0026
     20 N         4.004461   4.8496   -5.480251 N.3        1 UNL1     -0.3018
     21 C         4.906879   4.898873   -4.328044 C.3        1 UNL1     0.0026
     22 C         4.052264   4.821862   -3.061711 C.3        1 UNL1     0.0016
     23 C         4.648882   4.636605   -6.760876 C.3        1 UNL1     0.0012
     24 C         3.6714   3.989671   -7.754738 C.3        1 UNL1     -0.0339
     25 C         3.531829   4.830543   -9.034391 C.3        1 UNL1     -0.0615
     26 C         4.108323   2.568459   -8.064628 C.3        1 UNL1     -0.0615
     27 C         0.675151   10.692711   -0.219518 C.ar        1 UNL1     0.1347
     28 C         -0.131644   10.204733   0.79291 C.ar        1 UNL1     0.0342
     29 C         -0.054424   8.808308   0.980521 C.ar        1 UNL1     0.1435
     30 C         0.732558   7.979636   0.179782 C.ar        1 UNL1     0.0774
     31 O         -0.862917   8.168757   1.85363 O.3        1 UNL1     -0.4436
     32 C         -0.837532   6.796417   1.433023 C.3        1 UNL1     0.3143
     33 C         0.457939   6.642235   0.662181 C.2        1 UNL1     0.2504
     34 C         -1.162704   10.990084   1.554644 C.3        1 UNL1     -0.0327
     35 O         -0.719447   5.991477   2.612591 O.2        1 UNL1     -0.4528
     36 C         -2.473119   2.719776   1.819686 C.3        1 UNL1     0.0854
     37 C         -2.193325   1.696801   0.652313 C.3        1 UNL1     0.0236
     38 C         -1.917553   0.189703   1.125971 C.3        1 UNL1     0.1131
     39 C         -0.842254   -0.09555   2.25053 C.3        1 UNL1     0.0200
     40 C         0.63138   0.68569   2.228057 C.3        1 UNL1     0.0661
     41 C         1.671637   0.80669   0.893578 C.3        1 UNL1     0.0091
     42 C         2.828918   2.14333   0.404193 C.3        1 UNL1     0.0661
     43 C         2.180694   10.438444   -2.203539 C.2        1 UNL1     0.2131
     44 O         1.938319   11.526661   -2.693208 O.2        1 UNL1     -0.2851
     45 O         0.743294   12.068261   -0.43084 O.3        1 UNL1     -0.5056
     46 O         1.124887   5.644665   0.501292 O.2        1 UNL1     -0.2836
     47 C         4.639456   3.260896   2.013793 C.3        1 UNL1     -0.0566
     48 O         3.960473   1.222277   0.138935 O.3        1 UNL1     -0.3909
     49 C         0.917065   0.398399   -0.35198 C.3        1 UNL1     -0.0577
     50 O         0.548299   1.931508   2.890445 O.3        1 UNL1     -0.3910
     51 O         -2.276404   2.231142   3.127345 O.3        1 UNL1     -0.3753
     52 C         -1.400306   2.357194   -0.5224 C.3        1 UNL1     -0.0564
     53 O         -2.003915   -0.814589   0.014097 O.3        1 UNL1     -0.4608
     54 C         -1.68368   -2.143121   0.115984 C.2        1 UNL1     0.3042
     55 O         -0.660241   -2.697415   -0.282979 O.2        1 UNL1     -0.2512
     56 C         -2.709449   -2.953992   0.855579 C.3        1 UNL1     0.0332
     57 C         -1.616969   -0.185377   3.646927 C.3        1 UNL1     -0.0567
     58 C         -2.023357   6.616088   0.456894 C.3        1 UNL1     0.0210
     59 C         -3.053548   2.879876   4.132858 C.3        1 UNL1     0.0372
     60 C         -1.725334   4.003059   1.723966 C.2        1 UNL1     -0.0208
     61 C         -1.065113   4.690499   2.656854 C.2        1 UNL1     0.0882
     62 H         2.968812   4.195266   1.054511 H        1 UNL1     0.0365
     63 H         3.765512   5.968204   0.428263 H        1 UNL1     0.0576
     64 H         6.419376   5.526505   -1.074627 H        1 UNL1     0.0615
     65 H         4.691969   8.067381   -0.510829 H        1 UNL1     0.0622
     66 H         -3.535045   2.980871   1.709283 H        1 UNL1     0.0645
     67 H         -3.169337   1.592983   0.147159 H        1 UNL1     0.0362
     68 H         -2.890239   -0.038916   1.587639 H        1 UNL1     0.0741
     69 H         -0.558453   -1.138486   2.204167 H        1 UNL1     0.0359
     70 H         1.200245   0.039809   2.923967 H        1 UNL1     0.0600
     71 H         2.308208   -0.083763   1.06336 H        1 UNL1     0.0348
     72 H         2.624028   2.296125   1.473767 H        1 UNL1     0.0602
     73 H         -1.880072   4.42659   0.762755 H        1 UNL1     0.0628
     74 H         -0.814477   4.304502   3.645502 H        1 UNL1     0.1022
     75 H         8.22384   8.557489   -2.524168 H        1 UNL1     0.0279
     76 H         7.196641   8.369812   -3.889064 H        1 UNL1     0.0279
     77 H         7.438967   9.974299   -3.08769 H        1 UNL1     0.0279
     78 H         4.732309   9.346547   -3.959721 H        1 UNL1     0.1553
     79 H         4.488899   7.380129   -3.946455 H        1 UNL1     0.1484
     80 H         1.64772   4.866028   -4.162071 H        1 UNL1     0.0317
     81 H         1.390165   6.602066   -4.260878 H        1 UNL1     0.0317
     82 H         3.459191   6.88862   -5.650383 H        1 UNL1     0.0428
     83 H         2.314787   5.773328   -6.363243 H        1 UNL1     0.0428
     84 H         5.602215   4.055118   -4.279087 H        1 UNL1     0.0428
     85 H         5.560337   5.781713   -4.358066 H        1 UNL1     0.0428
     86 H         4.747618   4.726235   -2.248492 H        1 UNL1     0.0317
     87 H         3.502082   3.873265   -3.038069 H        1 UNL1     0.0317
     88 H         4.953698   5.614238   -7.156623 H        1 UNL1     0.0429
     89 H         5.560462   4.034745   -6.653359 H        1 UNL1     0.0429
     90 H         2.684869   3.903827   -7.283993 H        1 UNL1     0.0308
     91 H         3.891176   5.852375   -8.880014 H        1 UNL1     0.0233
     92 H         4.087143   4.375677   -9.858 H        1 UNL1     0.0233
     93 H         2.49131   4.906917   -9.372507 H        1 UNL1     0.0233
     94 H         4.940406   2.575951   -8.776962 H        1 UNL1     0.0233
     95 H         4.451327   2.075349   -7.150761 H        1 UNL1     0.0233
     96 H         3.290127   1.984341   -8.495128 H        1 UNL1     0.0233
     97 H         -2.047357   11.18839   0.956903 H        1 UNL1     0.0280
     98 H         -1.515829   10.454529   2.445565 H        1 UNL1     0.0280
     99 H         -0.733674   11.955952   1.867901 H        1 UNL1     0.0280
     100 H         0.250502   12.375498   -1.171369 H        1 UNL1     0.2922
     101 H         4.015754   3.44793   2.887675 H        1 UNL1     0.0236
     102 H         5.61674   3.734702   2.099852 H        1 UNL1     0.0236
     103 H         4.848171   2.178477   2.045419 H        1 UNL1     0.0236
     104 H         3.592544   0.321526   0.048116 H        1 UNL1     0.2098
     105 H         0.686215   1.219103   -1.026491 H        1 UNL1     0.0234
     106 H         1.362302   -0.429774   -0.903178 H        1 UNL1     0.0234
     107 H         0.0   -0.0   0.0 H        1 UNL1     0.0234
     108 H         1.042355   1.847884   3.728707 H        1 UNL1     0.2098
     109 H         -1.319886   3.447321   -0.408964 H        1 UNL1     0.0234
     110 H         -0.40201   1.928717   -0.662243 H        1 UNL1     0.0234
     111 H         -1.89739   2.194704   -1.488035 H        1 UNL1     0.0234
     112 H         -2.384183   -3.99682   0.919284 H        1 UNL1     0.0342
     113 H         -2.916806   -2.548281   1.844641 H        1 UNL1     0.0342
     114 H         -3.646174   -2.927828   0.281972 H        1 UNL1     0.0342
     115 H         -1.153895   -0.91576   4.324637 H        1 UNL1     0.0234
     116 H         -1.680135   0.764526   4.181476 H        1 UNL1     0.0234
     117 H         -2.638003   -0.594674   3.558009 H        1 UNL1     0.0234
     118 H         -2.859263   6.061428   0.918003 H        1 UNL1     0.0309
     119 H         -2.399159   7.563537   0.057749 H        1 UNL1     0.0309
     120 H         -1.762538   6.002891   -0.412628 H        1 UNL1     0.0309
     121 H         -2.489461   3.74597   4.477885 H        1 UNL1     0.0524
     122 H         -4.018756   3.245516   3.744632 H        1 UNL1     0.0524
     123 H         -3.240622   2.200703   4.959793 H        1 UNL1     0.0524
@<TRIPOS>BOND
     1     1     2    1
     2     1    42    1
     3     2     3    2
     4     3     4    1
     5     4     5    2
     6     5     7    1
     7     6    75    1
     8     6    76    1
     9     6    77    1
    10     7     9   am
    11     9    10    1
    12    10    11    2
    13    10    43    1
    14    11    14    1
    15    11    15    1
    16    12    13   ar
    17    12    27   ar
    18    12    43    1
    19    13    14    1
    20    13    30   ar
    21    14    17    2
    22    15    16    1
    23    16    17    1
    24    16    18    1
    25    16    22    1
    26    18    19    1
    27    19    20    1
    28    20    21    1
    29    21    22    1
    30    23    24    1
    31    23    88    1
    32    23    89    1
    33    24    25    1
    34    24    26    1
    35    24    90    1
    36    25    91    1
    37    25    92    1
    38    25    93    1
    39    26    94    1
    40    26    95    1
    41    26    96    1
    42    27    28   ar
    43    28    29   ar
    44    29    30   ar
    45    29    31    1
    46    30    33    1
    47    31    32    1
    48    32    33    1
    49    32    35    1
    50    34    97    1
    51    34    98    1
    52    34    99    1
    53    35    61    1
    54    36    37    1
    55    36    60    1
    56    37    38    1
    57    38    39    1
    58    39    40    1
    59    40    41    1
    60    41    42    1
    61    45   100    1
    62    47   101    1
    63    47   102    1
    64    47   103    1
    65    48   104    1
    66    49   105    1
    67    49   106    1
    68    49   107    1
    69    50   108    1
    70    51    59    1
    71    52   109    1
    72    52   110    1
    73    52   111    1
    74    53    54    1
    75    54    55    2
    76    54    56    1
    77    56   112    1
    78    56   113    1
    79    56   114    1
    80    57   115    1
    81    57   116    1
    82    57   117    1
    83    58   118    1
    84    58   119    1
    85    58   120    1
    86    59   121    1
    87    59   122    1
    88    59   123    1
    89    60    61    2
    90     1    47    1
    91     1    62    1
    92     2    63    1
    93     3    64    1
    94     4    65    1
    95     5     6    1
    96     7     8    2
    97     9    78    1
    98    15    79    1
    99    18    80    1
   100    18    81    1
   101    19    82    1
   102    19    83    1
   103    20    23    1
   104    21    84    1
   105    21    85    1
   106    22    86    1
   107    22    87    1
   108    27    45    1
   109    28    34    1
   110    32    58    1
   111    33    46    2
   112    36    51    1
   113    36    66    1
   114    37    52    1
   115    37    67    1
   116    38    53    1
   117    38    68    1
   118    42    48    1
   119    42    72    1
   120    43    44    2
   121    60    73    1
   122    61    74    1
   123    39    69    1
   124    39    57    1
   125    40    70    1
   126    40    50    1
   127    41    71    1
   128    41    49    1
