@<TRIPOS>MOLECULE
*****
 123 128 0 0 0
SMALL
GASTEIGER

@<TRIPOS>ATOM
     1 C         -2.02874   -3.938695   -1.316697 C.3        1 UNL1     0.0009
     2 C         -1.487739   -5.251115   -2.509135 C.2        1 UNL1     -0.0787
     3 C         -1.666247   -5.967451   -3.754544 C.2        1 UNL1     -0.0649
     4 C         -0.650955   -7.138228   -4.436321 C.2        1 UNL1     -0.0542
     5 C         -0.289939   -7.808282   -5.631216 C.2        1 UNL1     0.0115
     6 C         -0.694111   -8.040161   -7.113174 C.3        1 UNL1     -0.0348
     7 C         1.117089   -8.578447   -5.695301 C.2        1 UNL1     0.2441
     8 O         1.215961   -9.793388   -5.592009 O.2        1 UNL1     -0.2702
     9 N         2.197494   -7.795454   -6.137793 N.am        1 UNL1     -0.2772
     10 C         2.78648   -7.146532   -5.076984 C.2        1 UNL1     0.1049
     11 C         2.213035   -6.020741   -4.692304 C.2        1 UNL1     0.0801
     12 C         3.683425   -7.522218   -2.772275 C.ar        1 UNL1     0.0753
     13 C         2.874998   -6.414691   -2.361865 C.ar        1 UNL1     0.0305
     14 C         2.215458   -5.546729   -3.33485 C.2        1 UNL1     0.0924
     15 N         1.264614   -5.284181   -5.296046 N.pl3        1 UNL1     -0.3170
     16 C         1.113324   -4.06425   -4.548294 C.3        1 UNL1     0.1275
     17 N         1.518258   -4.430751   -3.141372 N.2        1 UNL1     -0.2557
     18 C         2.172896   -3.089776   -5.053674 C.3        1 UNL1     0.0016
     19 C         2.008748   -2.929338   -6.556639 C.3        1 UNL1     0.0026
     20 N         0.667218   -2.432926   -6.830321 N.3        1 UNL1     -0.3018
     21 C         -0.421341   -3.273147   -6.326896 C.3        1 UNL1     0.0026
     22 C         -0.239353   -3.417165   -4.814932 C.3        1 UNL1     0.0016
     23 C         0.506358   -1.96404   -8.192273 C.3        1 UNL1     0.0012
     24 C         1.72363   -1.130263   -8.62218 C.3        1 UNL1     -0.0339
     25 C         1.349528   -0.106914   -9.707013 C.3        1 UNL1     -0.0615
     26 C         2.348512   -0.45856   -7.411759 C.3        1 UNL1     -0.0615
     27 C         4.405664   -8.270982   -1.846077 C.ar        1 UNL1     0.1347
     28 C         4.429556   -7.984341   -0.492815 C.ar        1 UNL1     0.0342
     29 C         3.587818   -6.920084   -0.105516 C.ar        1 UNL1     0.1435
     30 C         2.830488   -6.183923   -1.017514 C.ar        1 UNL1     0.0774
     31 O         3.584682   -6.448897   1.160572 O.3        1 UNL1     -0.4436
     32 C         3.010859   -5.137008   1.057875 C.3        1 UNL1     0.3143
     33 C         2.190212   -5.162167   -0.215749 C.2        1 UNL1     0.2504
     34 C         5.369578   -8.579749   0.518099 C.3        1 UNL1     -0.0327
     35 O         2.089315   -4.98885   2.145099 O.2        1 UNL1     -0.4528
     36 C         2.067421   -1.28924   2.993919 C.3        1 UNL1     0.0854
     37 C         1.737279   -0.05638   2.067321 C.3        1 UNL1     0.0236
     38 C         0.58232   0.911419   2.616118 C.3        1 UNL1     0.1131
     39 C         -0.803086   0.29988   3.073219 C.3        1 UNL1     0.0200
     40 C         -1.548829   -0.879387   2.159089 C.3        1 UNL1     0.0661
     41 C         -1.829539   -0.811622   0.487497 C.3        1 UNL1     0.0091
     42 C         -1.878202   -2.149986   -0.766225 C.3        1 UNL1     0.0661
     43 C         3.798166   -7.791873   -4.227054 C.2        1 UNL1     0.2131
     44 O         4.718175   -8.414547   -4.725649 O.2        1 UNL1     -0.2851
     45 O         5.131293   -9.360772   -2.322793 O.3        1 UNL1     -0.5056
     46 O         1.214193   -4.503023   -0.496409 O.2        1 UNL1     -0.2836
     47 C         -3.292434   -4.401155   -0.542625 C.3        1 UNL1     -0.0566
     48 O         -3.141881   -1.680667   -1.384264 O.3        1 UNL1     -0.3909
     49 C         -1.007543   0.313762   -0.100147 C.3        1 UNL1     -0.0577
     50 O         -1.080085   -2.163412   2.518645 O.3        1 UNL1     -0.3910
     51 O         1.200986   -1.486845   4.088302 O.3        1 UNL1     -0.3753
     52 C         1.869816   -0.415931   0.55137 C.3        1 UNL1     -0.0564
     53 O         0.528781   2.238707   1.917716 O.3        1 UNL1     -0.4608
     54 C         1.571772   3.120372   1.804728 C.2        1 UNL1     0.3042
     55 O         2.454773   3.342701   2.632204 O.2        1 UNL1     -0.2512
     56 C         1.622624   3.825071   0.479011 C.3        1 UNL1     0.0332
     57 C         -0.73619   0.084369   4.65665 C.3        1 UNL1     -0.0567
     58 C         4.191949   -4.156373   0.871027 C.3        1 UNL1     0.0210
     59 C         1.739384   -2.282918   5.142939 C.3        1 UNL1     0.0372
     60 C         2.172868   -2.59559   2.288587 C.2        1 UNL1     -0.0208
     61 C         1.678188   -3.792453   2.607263 C.2        1 UNL1     0.0882
     62 H         -1.167025   -4.184804   -0.684565 H        1 UNL1     0.0365
     63 H         -0.661632   -5.701632   -1.955013 H        1 UNL1     0.0576
     64 H         -2.434171   -5.679026   -4.475801 H        1 UNL1     0.0615
     65 H         0.019799   -7.410565   -3.616927 H        1 UNL1     0.0622
     66 H         3.071488   -1.077511   3.387704 H        1 UNL1     0.0645
     67 H         2.626796   0.591298   2.155823 H        1 UNL1     0.0362
     68 H         1.063566   1.266566   3.540128 H        1 UNL1     0.0741
     69 H         -1.542858   1.089069   3.091309 H        1 UNL1     0.0359
     70 H         -2.570872   -0.829867   2.581032 H        1 UNL1     0.0600
     71 H         -2.843824   -0.366512   0.47972 H        1 UNL1     0.0348
     72 H         -2.017659   -2.641471   0.207587 H        1 UNL1     0.0602
     73 H         2.85064   -2.500537   1.476899 H        1 UNL1     0.0628
     74 H         0.934857   -3.964939   3.386331 H        1 UNL1     0.1022
     75 H         -0.927012   -7.068875   -7.612568 H        1 UNL1     0.0279
     76 H         0.068985   -8.461127   -7.763974 H        1 UNL1     0.0279
     77 H         -1.651891   -8.571254   -7.214652 H        1 UNL1     0.0279
     78 H         1.862316   -7.084154   -6.784156 H        1 UNL1     0.1553
     79 H         1.041389   -5.355054   -6.271792 H        1 UNL1     0.1484
     80 H         2.054701   -2.131638   -4.53332 H        1 UNL1     0.0317
     81 H         3.180108   -3.451168   -4.820068 H        1 UNL1     0.0317
     82 H         2.198209   -3.872567   -7.08987 H        1 UNL1     0.0428
     83 H         2.775109   -2.231997   -6.896427 H        1 UNL1     0.0428
     84 H         -1.41501   -2.83898   -6.474987 H        1 UNL1     0.0428
     85 H         -0.470296   -4.236939   -6.852277 H        1 UNL1     0.0428
     86 H         -1.120162   -3.922207   -4.464083 H        1 UNL1     0.0317
     87 H         -0.302662   -2.433164   -4.334484 H        1 UNL1     0.0317
     88 H         0.433742   -2.840814   -8.848999 H        1 UNL1     0.0429
     89 H         -0.424953   -1.395381   -8.310853 H        1 UNL1     0.0429
     90 H         2.493555   -1.799507   -9.024101 H        1 UNL1     0.0308
     91 H         2.079339   -0.106677   -10.522168 H        1 UNL1     0.0233
     92 H         0.358005   -0.31981   -10.113418 H        1 UNL1     0.0233
     93 H         1.306972   0.917566   -9.317826 H        1 UNL1     0.0233
     94 H         2.308313   0.630561   -7.521466 H        1 UNL1     0.0233
     95 H         1.794459   -0.727016   -6.507924 H        1 UNL1     0.0233
     96 H         3.393687   -0.754884   -7.286181 H        1 UNL1     0.0233
     97 H         5.060707   -9.574434   0.825396 H        1 UNL1     0.0280
     98 H         6.387499   -8.690117   0.121978 H        1 UNL1     0.0280
     99 H         5.404654   -7.936945   1.412899 H        1 UNL1     0.0280
     100 H         5.297953   -10.030326   -1.682837 H        1 UNL1     0.2922
     101 H         -3.626749   -3.606328   0.123813 H        1 UNL1     0.0236
     102 H         -3.151149   -5.344254   -0.015759 H        1 UNL1     0.0236
     103 H         -4.147659   -4.580491   -1.215398 H        1 UNL1     0.0236
     104 H         -2.989539   -0.773737   -1.714779 H        1 UNL1     0.2098
     105 H         -1.193877   0.502972   -1.154325 H        1 UNL1     0.0234
     106 H         -1.043512   1.246151   0.463134 H        1 UNL1     0.0234
     107 H         0.0   0.0   0.0 H        1 UNL1     0.0234
     108 H         -0.107427   -2.10849   2.587124 H        1 UNL1     0.2098
     109 H         1.769221   0.466553   -0.095789 H        1 UNL1     0.0234
     110 H         2.80137   -0.940607   0.313323 H        1 UNL1     0.0234
     111 H         1.083013   -1.111385   0.230075 H        1 UNL1     0.0234
     112 H         2.633368   3.764971   0.064125 H        1 UNL1     0.0342
     113 H         0.888357   3.431645   -0.222354 H        1 UNL1     0.0342
     114 H         1.389283   4.88579   0.645117 H        1 UNL1     0.0342
     115 H         0.294863   -0.066254   5.005119 H        1 UNL1     0.0234
     116 H         -1.16139   0.907021   5.235007 H        1 UNL1     0.0234
     117 H         -1.21395   -0.851588   4.993805 H        1 UNL1     0.0234
     118 H         4.919373   -4.220896   1.699095 H        1 UNL1     0.0309
     119 H         4.717862   -4.293316   -0.079165 H        1 UNL1     0.0309
     120 H         3.875417   -3.107858   0.894042 H        1 UNL1     0.0309
     121 H         0.921746   -2.865308   5.566787 H        1 UNL1     0.0524
     122 H         2.501688   -2.993884   4.783137 H        1 UNL1     0.0524
     123 H         2.181581   -1.647676   5.905188 H        1 UNL1     0.0524
@<TRIPOS>BOND
     1     1     2    1
     2     1    42    1
     3     2     3    2
     4     3     4    1
     5     4     5    2
     6     5     7    1
     7     6    75    1
     8     6    76    1
     9     6    77    1
    10     7     9   am
    11     9    10    1
    12    10    11    2
    13    10    43    1
    14    11    14    1
    15    11    15    1
    16    12    13   ar
    17    12    27   ar
    18    12    43    1
    19    13    14    1
    20    13    30   ar
    21    14    17    2
    22    15    16    1
    23    16    17    1
    24    16    18    1
    25    16    22    1
    26    18    19    1
    27    19    20    1
    28    20    21    1
    29    21    22    1
    30    23    24    1
    31    23    88    1
    32    23    89    1
    33    24    25    1
    34    24    26    1
    35    24    90    1
    36    25    91    1
    37    25    92    1
    38    25    93    1
    39    26    94    1
    40    26    95    1
    41    26    96    1
    42    27    28   ar
    43    28    29   ar
    44    29    30   ar
    45    29    31    1
    46    30    33    1
    47    31    32    1
    48    32    33    1
    49    32    35    1
    50    34    97    1
    51    34    98    1
    52    34    99    1
    53    35    61    1
    54    36    37    1
    55    36    60    1
    56    37    38    1
    57    38    39    1
    58    39    40    1
    59    40    41    1
    60    41    42    1
    61    45   100    1
    62    47   101    1
    63    47   102    1
    64    47   103    1
    65    48   104    1
    66    49   105    1
    67    49   106    1
    68    49   107    1
    69    50   108    1
    70    51    59    1
    71    52   109    1
    72    52   110    1
    73    52   111    1
    74    53    54    1
    75    54    55    2
    76    54    56    1
    77    56   112    1
    78    56   113    1
    79    56   114    1
    80    57   115    1
    81    57   116    1
    82    57   117    1
    83    58   118    1
    84    58   119    1
    85    58   120    1
    86    59   121    1
    87    59   122    1
    88    59   123    1
    89    60    61    2
    90     1    47    1
    91     1    62    1
    92     2    63    1
    93     3    64    1
    94     4    65    1
    95     5     6    1
    96     7     8    2
    97     9    78    1
    98    15    79    1
    99    18    80    1
   100    18    81    1
   101    19    82    1
   102    19    83    1
   103    20    23    1
   104    21    84    1
   105    21    85    1
   106    22    86    1
   107    22    87    1
   108    27    45    1
   109    28    34    1
   110    32    58    1
   111    33    46    2
   112    36    51    1
   113    36    66    1
   114    37    52    1
   115    37    67    1
   116    38    53    1
   117    38    68    1
   118    42    48    1
   119    42    72    1
   120    43    44    2
   121    60    73    1
   122    61    74    1
   123    39    69    1
   124    39    57    1
   125    40    70    1
   126    40    50    1
   127    41    71    1
   128    41    49    1
