@<TRIPOS>MOLECULE
*****
 123 128 0 0 0
SMALL
GASTEIGER

@<TRIPOS>ATOM
     1 C         0.356832   4.046   -1.052734 C.3        1 UNL1     0.0009
     2 C         -0.547334   4.942383   -2.40033 C.2        1 UNL1     -0.0787
     3 C         -0.569706   5.526154   -3.725003 C.2        1 UNL1     -0.0649
     4 C         -1.8932   6.186196   -4.549057 C.2        1 UNL1     -0.0542
     5 C         -2.408262   6.546332   -5.818739 C.2        1 UNL1     0.0115
     6 C         -2.042324   6.729436   -7.317367 C.3        1 UNL1     -0.0348
     7 C         -3.989656   6.769869   -5.980644 C.2        1 UNL1     0.2441
     8 O         -4.503324   7.879041   -6.02973 O.2        1 UNL1     -0.2702
     9 N         -4.715499   5.615974   -6.323905 N.am        1 UNL1     -0.2772
     10 C         -5.093188   4.931665   -5.191477 C.2        1 UNL1     0.1049
     11 C         -4.186489   4.126271   -4.668545 C.2        1 UNL1     0.0801
     12 C         -6.166422   5.239792   -2.953048 C.ar        1 UNL1     0.0753
     13 C         -5.046618   4.53559   -2.406472 C.ar        1 UNL1     0.0305
     14 C         -4.086904   3.842024   -3.262606 C.2        1 UNL1     0.0924
     15 N         -3.01718   3.697848   -5.17421 N.pl3        1 UNL1     -0.3170
     16 C         -2.490574   2.701183   -4.280007 C.3        1 UNL1     0.1275
     17 N         -3.058904   3.066276   -2.930403 N.2        1 UNL1     -0.2557
     18 C         -3.128456   1.368867   -4.661768 C.3        1 UNL1     0.0016
     19 C         -2.852402   1.10128   -6.132748 C.3        1 UNL1     0.0026
     20 N         -1.411202   1.070713   -6.340201 N.3        1 UNL1     -0.3018
     21 C         -0.700032   2.287806   -5.943601 C.3        1 UNL1     0.0026
     22 C         -0.987603   2.534987   -4.461676 C.3        1 UNL1     0.0016
     23 C         -1.038839   0.531184   -7.632833 C.3        1 UNL1     0.0012
     24 C         -1.319682   -0.978751   -7.687427 C.3        1 UNL1     -0.0339
     25 C         -0.954754   -1.569393   -9.059297 C.3        1 UNL1     -0.0615
     26 C         -0.585966   -1.685983   -6.561255 C.3        1 UNL1     -0.0615
     27 C         -7.142045   5.795255   -2.128585 C.ar        1 UNL1     0.1347
     28 C         -7.126619   5.677577   -0.750193 C.ar        1 UNL1     0.0342
     29 C         -5.989351   5.022486   -0.231885 C.ar        1 UNL1     0.1435
     30 C         -4.98575   4.492536   -1.04377 C.ar        1 UNL1     0.0774
     31 O         -5.881442   4.732158   1.083057 O.3        1 UNL1     -0.4436
     32 C         -4.888883   3.696886   1.145605 C.3        1 UNL1     0.3143
     33 C         -4.070586   3.855645   -0.119859 C.2        1 UNL1     0.2504
     34 C         -8.257846   6.02485   0.177075 C.3        1 UNL1     -0.0327
     35 O         -4.021832   4.003867   2.244349 O.2        1 UNL1     -0.4528
     36 C         -2.771542   0.66526   3.547638 C.3        1 UNL1     0.0854
     37 C         -1.997981   -0.476502   2.782455 C.3        1 UNL1     0.0236
     38 C         -0.607037   -0.914755   3.449502 C.3        1 UNL1     0.1131
     39 C         0.463118   0.186571   3.829133 C.3        1 UNL1     0.0200
     40 C         0.799652   1.435953   2.776408 C.3        1 UNL1     0.0661
     41 C         1.160858   1.27531   1.126762 C.3        1 UNL1     0.0091
     42 C         0.803882   2.392461   -0.283893 C.3        1 UNL1     0.0661
     43 C         -6.301593   5.281938   -4.43028 C.2        1 UNL1     0.2131
     44 O         -7.356046   5.485846   -5.004116 O.2        1 UNL1     -0.2851
     45 O         -8.175115   6.503833   -2.738602 O.3        1 UNL1     -0.5056
     46 O         -2.916316   3.546445   -0.314564 O.2        1 UNL1     -0.2836
     47 C         1.349711   5.003344   -0.340228 C.3        1 UNL1     -0.0566
     48 O         2.178104   2.320149   -0.836524 O.3        1 UNL1     -0.3909
     49 C         0.801296   -0.125015   0.68258 C.3        1 UNL1     -0.0577
     50 O         -0.096212   2.511478   2.972364 O.3        1 UNL1     -0.3910
     51 O         -2.074995   1.275994   4.610303 O.3        1 UNL1     -0.3753
     52 C         -2.177925   -0.363916   1.233296 C.3        1 UNL1     -0.0564
     53 O         -0.070868   -2.213461   2.922044 O.3        1 UNL1     -0.4608
     54 C         1.251582   -2.496436   2.700727 C.2        1 UNL1     0.3042
     55 O         1.840306   -2.517164   1.620536 O.2        1 UNL1     -0.2512
     56 C         2.031802   -2.747238   3.959722 C.3        1 UNL1     0.0332
     57 C         0.255867   0.548409   5.373249 C.3        1 UNL1     -0.0567
     58 C         -5.652896   2.353916   1.080458 C.3        1 UNL1     0.0210
     59 C         -2.550341   0.936583   5.912114 C.3        1 UNL1     0.0372
     60 C         -3.286629   1.763171   2.684831 C.2        1 UNL1     -0.0208
     61 C         -3.246717   3.085659   2.85269 C.2        1 UNL1     0.0882
     62 H         -0.564332   4.050993   -0.457635 H        1 UNL1     0.0365
     63 H         -1.501642   5.140939   -1.908047 H        1 UNL1     0.0576
     64 H         0.281919   5.438978   -4.403415 H        1 UNL1     0.0615
     65 H         -2.652505   6.303386   -3.771107 H        1 UNL1     0.0622
     66 H         -3.658789   0.167005   3.963068 H        1 UNL1     0.0645
     67 H         -2.614744   -1.376646   2.949502 H        1 UNL1     0.0362
     68 H         -0.978176   -1.304204   4.409767 H        1 UNL1     0.0741
     69 H         1.426922   -0.290583   3.946662 H        1 UNL1     0.0359
     70 H         1.756892   1.792083   3.202933 H        1 UNL1     0.0600
     71 H         2.265529   1.21039   1.176203 H        1 UNL1     0.0348
     72 H         0.72291   3.01163   0.621308 H        1 UNL1     0.0602
     73 H         -3.853881   1.346016   1.890189 H        1 UNL1     0.0628
     74 H         -2.643021   3.593773   3.605424 H        1 UNL1     0.1022
     75 H         -1.098773   7.317574   -7.421476 H        1 UNL1     0.0279
     76 H         -1.816652   5.823743   -7.875813 H        1 UNL1     0.0279
     77 H         -2.757284   7.369724   -7.854548 H        1 UNL1     0.0279
     78 H         -4.128417   4.994225   -6.876027 H        1 UNL1     0.1553
     79 H         -2.78846   3.727418   -6.150809 H        1 UNL1     0.1484
     80 H         -2.712463   0.578076   -4.025871 H        1 UNL1     0.0317
     81 H         -4.207879   1.384557   -4.476697 H        1 UNL1     0.0317
     82 H         -3.329589   1.852065   -6.779684 H        1 UNL1     0.0428
     83 H         -3.317473   0.147602   -6.384258 H        1 UNL1     0.0428
     84 H         0.387803   2.209623   -6.034777 H        1 UNL1     0.0428
     85 H         -0.960883   3.141031   -6.584913 H        1 UNL1     0.0428
     86 H         -0.349737   3.350434   -4.175036 H        1 UNL1     0.0317
     87 H         -0.612474   1.696505   -3.862241 H        1 UNL1     0.0317
     88 H         -1.648583   1.027997   -8.398786 H        1 UNL1     0.0429
     89 H         0.011351   0.74737   -7.867652 H        1 UNL1     0.0429
     90 H         -2.386843   -1.152428   -7.505173 H        1 UNL1     0.0308
     91 H         0.025604   -1.218558   -9.395323 H        1 UNL1     0.0233
     92 H         -0.95122   -2.661247   -9.021217 H        1 UNL1     0.0233
     93 H         -1.675696   -1.292916   -9.838167 H        1 UNL1     0.0233
     94 H         -0.453481   -2.745911   -6.803818 H        1 UNL1     0.0233
     95 H         0.405438   -1.24461   -6.426084 H        1 UNL1     0.0233
     96 H         -1.136187   -1.61328   -5.61895 H        1 UNL1     0.0233
     97 H         -8.574655   5.172345   0.770452 H        1 UNL1     0.0280
     98 H         -7.978098   6.804906   0.897152 H        1 UNL1     0.0280
     99 H         -9.121557   6.377198   -0.410249 H        1 UNL1     0.0280
     100 H         -7.892596   7.143013   -3.368883 H        1 UNL1     0.2922
     101 H         0.947548   5.294644   0.629857 H        1 UNL1     0.0236
     102 H         1.622045   5.866907   -0.946097 H        1 UNL1     0.0236
     103 H         2.307952   4.508919   -0.108901 H        1 UNL1     0.0236
     104 H         2.799285   2.311447   -0.082184 H        1 UNL1     0.2098
     105 H         1.599834   -0.651101   0.165489 H        1 UNL1     0.0234
     106 H         0.377328   -0.755785   1.463802 H        1 UNL1     0.0234
     107 H         -0.0   0.0   0.0 H        1 UNL1     0.0234
     108 H         -0.48271   2.408452   3.863303 H        1 UNL1     0.2098
     109 H         -3.230481   -0.450458   0.929405 H        1 UNL1     0.0234
     110 H         -1.750335   0.554079   0.815928 H        1 UNL1     0.0234
     111 H         -1.648899   -1.168194   0.704889 H        1 UNL1     0.0234
     112 H         3.079712   -2.94545   3.714889 H        1 UNL1     0.0342
     113 H         1.944784   -1.923333   4.666442 H        1 UNL1     0.0342
     114 H         1.62329   -3.64521   4.443384 H        1 UNL1     0.0342
     115 H         1.204989   0.805448   5.863439 H        1 UNL1     0.0234
     116 H         -0.437342   1.373913   5.546608 H        1 UNL1     0.0234
     117 H         -0.074897   -0.308302   5.985282 H        1 UNL1     0.0234
     118 H         -5.617383   1.809726   2.040459 H        1 UNL1     0.0309
     119 H         -6.696907   2.468095   0.771901 H        1 UNL1     0.0309
     120 H         -5.203155   1.648316   0.373375 H        1 UNL1     0.0309
     121 H         -2.292635   1.756911   6.581446 H        1 UNL1     0.0524
     122 H         -3.646304   0.817609   5.93946 H        1 UNL1     0.0524
     123 H         -2.087034   0.015029   6.252962 H        1 UNL1     0.0524
@<TRIPOS>BOND
     1     1     2    1
     2     1    42    1
     3     2     3    2
     4     3     4    1
     5     4     5    2
     6     5     7    1
     7     6    75    1
     8     6    76    1
     9     6    77    1
    10     7     9   am
    11     9    10    1
    12    10    11    2
    13    10    43    1
    14    11    14    1
    15    11    15    1
    16    12    13   ar
    17    12    27   ar
    18    12    43    1
    19    13    14    1
    20    13    30   ar
    21    14    17    2
    22    15    16    1
    23    16    17    1
    24    16    18    1
    25    16    22    1
    26    18    19    1
    27    19    20    1
    28    20    21    1
    29    21    22    1
    30    23    24    1
    31    23    88    1
    32    23    89    1
    33    24    25    1
    34    24    26    1
    35    24    90    1
    36    25    91    1
    37    25    92    1
    38    25    93    1
    39    26    94    1
    40    26    95    1
    41    26    96    1
    42    27    28   ar
    43    28    29   ar
    44    29    30   ar
    45    29    31    1
    46    30    33    1
    47    31    32    1
    48    32    33    1
    49    32    35    1
    50    34    97    1
    51    34    98    1
    52    34    99    1
    53    35    61    1
    54    36    37    1
    55    36    60    1
    56    37    38    1
    57    38    39    1
    58    39    40    1
    59    40    41    1
    60    41    42    1
    61    45   100    1
    62    47   101    1
    63    47   102    1
    64    47   103    1
    65    48   104    1
    66    49   105    1
    67    49   106    1
    68    49   107    1
    69    50   108    1
    70    51    59    1
    71    52   109    1
    72    52   110    1
    73    52   111    1
    74    53    54    1
    75    54    55    2
    76    54    56    1
    77    56   112    1
    78    56   113    1
    79    56   114    1
    80    57   115    1
    81    57   116    1
    82    57   117    1
    83    58   118    1
    84    58   119    1
    85    58   120    1
    86    59   121    1
    87    59   122    1
    88    59   123    1
    89    60    61    2
    90     1    47    1
    91     1    62    1
    92     2    63    1
    93     3    64    1
    94     4    65    1
    95     5     6    1
    96     7     8    2
    97     9    78    1
    98    15    79    1
    99    18    80    1
   100    18    81    1
   101    19    82    1
   102    19    83    1
   103    20    23    1
   104    21    84    1
   105    21    85    1
   106    22    86    1
   107    22    87    1
   108    27    45    1
   109    28    34    1
   110    32    58    1
   111    33    46    2
   112    36    51    1
   113    36    66    1
   114    37    52    1
   115    37    67    1
   116    38    53    1
   117    38    68    1
   118    42    48    1
   119    42    72    1
   120    43    44    2
   121    60    73    1
   122    61    74    1
   123    39    69    1
   124    39    57    1
   125    40    70    1
   126    40    50    1
   127    41    71    1
   128    41    49    1
