@<TRIPOS>MOLECULE
*****
 123 128 0 0 0
SMALL
GASTEIGER

@<TRIPOS>ATOM
     1 C         5.163408   1.763029   0.480134 C.3        1 UNL1     0.0009
     2 C         6.595279   2.575025   -0.37277 C.2        1 UNL1     -0.0787
     3 C         7.875617   2.481934   -1.042184 C.2        1 UNL1     -0.0649
     4 C         8.7472   3.721062   -1.798001 C.2        1 UNL1     -0.0542
     5 C         9.763742   4.018475   -2.738888 C.2        1 UNL1     0.0115
     6 C         10.891464   3.398008   -3.608707 C.3        1 UNL1     -0.0348
     7 C         9.852873   5.503077   -3.343043 C.2        1 UNL1     0.2441
     8 O         10.675273   6.326583   -2.966187 O.2        1 UNL1     -0.2702
     9 N         9.098806   5.709792   -4.511291 N.am        1 UNL1     -0.2772
     10 C         7.815781   6.09199   -4.193338 C.2        1 UNL1     0.1049
     11 C         6.973778   5.117479   -3.900793 C.2        1 UNL1     0.0801
     12 C         6.516362   7.692183   -2.776219 C.ar        1 UNL1     0.0753
     13 C         5.761992   6.561165   -2.328632 C.ar        1 UNL1     0.0305
     14 C         5.881144   5.25696   -2.976632 C.2        1 UNL1     0.0924
     15 N         7.100026   3.789164   -4.062554 N.pl3        1 UNL1     -0.3170
     16 C         5.832875   3.185556   -3.745949 C.3        1 UNL1     0.1275
     17 N         5.196251   4.137119   -2.762607 N.2        1 UNL1     -0.2557
     18 C         4.976379   3.244223   -5.007168 C.3        1 UNL1     0.0016
     19 C         5.730243   2.564424   -6.139047 C.3        1 UNL1     0.0026
     20 N         6.005661   1.186483   -5.756354 N.3        1 UNL1     -0.3018
     21 C         6.77291   1.026262   -4.519412 C.3        1 UNL1     0.0026
     22 C         5.99514   1.712429   -3.395071 C.3        1 UNL1     0.0016
     23 C         6.449621   0.370255   -6.868701 C.3        1 UNL1     0.0012
     24 C         5.291154   0.115312   -7.845796 C.3        1 UNL1     -0.0339
     25 C         5.300949   1.124968   -9.005345 C.3        1 UNL1     -0.0615
     26 C         5.341166   -1.316257   -8.350662 C.3        1 UNL1     -0.0615
     27 C         6.309308   8.958298   -2.233817 C.ar        1 UNL1     0.1347
     28 C         5.352073   9.223226   -1.270715 C.ar        1 UNL1     0.0342
     29 C         4.655255   8.085828   -0.810352 C.ar        1 UNL1     0.1435
     30 C         4.877229   6.805365   -1.318645 C.ar        1 UNL1     0.0774
     31 O         3.616273   8.194712   0.046192 O.3        1 UNL1     -0.4436
     32 C         2.897983   6.959937   -0.096149 C.3        1 UNL1     0.3143
     33 C         3.912846   5.970872   -0.632822 C.2        1 UNL1     0.2504
     34 C         4.902271   10.587183   -0.826417 C.3        1 UNL1     -0.0327
     35 O         2.54231   6.519837   1.220309 O.2        1 UNL1     -0.4528
     36 C         -0.695889   4.578416   0.829107 C.3        1 UNL1     0.0854
     37 C         -0.999808   3.318469   -0.069608 C.3        1 UNL1     0.0236
     38 C         -1.594328   2.054219   0.717769 C.3        1 UNL1     0.1131
     39 C         -0.863364   1.523244   2.01624 C.3        1 UNL1     0.0200
     40 C         0.798373   1.382719   2.052582 C.3        1 UNL1     0.0661
     41 C         1.756863   0.618869   0.87979 C.3        1 UNL1     0.0091
     42 C         3.461772   0.987638   0.311724 C.3        1 UNL1     0.0661
     43 C         7.46394   7.489344   -3.900146 C.2        1 UNL1     0.2131
     44 O         7.859091   8.389893   -4.618203 O.2        1 UNL1     -0.2851
     45 O         7.117137   9.996685   -2.69273 O.3        1 UNL1     -0.5056
     46 O         3.932877   4.767167   -0.504193 O.2        1 UNL1     -0.2836
     47 C         5.565049   1.332269   1.916488 C.3        1 UNL1     -0.0566
     48 O         3.914873   -0.422226   0.38981 O.3        1 UNL1     -0.3909
     49 C         0.919973   0.385879   -0.358283 C.3        1 UNL1     -0.0577
     50 O         1.395925   2.60173   2.445858 O.3        1 UNL1     -0.3910
     51 O         -0.815556   4.385946   2.220533 O.3        1 UNL1     -0.3753
     52 C         0.041948   3.163199   -1.225283 C.3        1 UNL1     -0.0564
     53 O         -2.196232   1.014958   -0.182217 O.3        1 UNL1     -0.4608
     54 C         -2.413215   -0.296389   0.151278 C.2        1 UNL1     0.3042
     55 O         -1.839142   -1.28664   -0.300033 O.2        1 UNL1     -0.2512
     56 C         -3.438728   -0.479925   1.233567 C.3        1 UNL1     0.0332
     57 C         -1.58295   2.187837   3.280632 C.3        1 UNL1     -0.0567
     58 C         1.819054   7.203613   -1.176918 C.3        1 UNL1     0.0210
     59 C         -1.168925   5.554515   2.959075 C.3        1 UNL1     0.0372
     60 C         0.630535   5.211965   0.595925 C.2        1 UNL1     -0.0208
     61 C         1.544534   5.648484   1.463567 C.2        1 UNL1     0.0882
     62 H         4.684725   2.745587   0.570427 H        1 UNL1     0.0365
     63 H         6.326104   3.627821   -0.264897 H        1 UNL1     0.0576
     64 H         8.335612   1.516874   -1.266175 H        1 UNL1     0.0615
     65 H         8.258282   4.634361   -1.448248 H        1 UNL1     0.0622
     66 H         -1.443672   5.323197   0.522239 H        1 UNL1     0.0645
     67 H         -1.867984   3.626241   -0.677971 H        1 UNL1     0.0362
     68 H         -2.541753   2.487584   1.072877 H        1 UNL1     0.0741
     69 H         -1.191254   0.510799   2.210797 H        1 UNL1     0.0359
     70 H         0.914602   0.72121   2.93233 H        1 UNL1     0.0600
     71 H         1.804747   -0.402895   1.304835 H        1 UNL1     0.0348
     72 H         3.357108   1.473822   1.292533 H        1 UNL1     0.0602
     73 H         0.74496   5.411367   -0.440605 H        1 UNL1     0.0628
     74 H         1.530592   5.435919   2.53308 H        1 UNL1     0.1022
     75 H         10.939746   2.292608   -3.457733 H        1 UNL1     0.0279
     76 H         10.774596   3.482313   -4.686808 H        1 UNL1     0.0279
     77 H         11.896503   3.705222   -3.284335 H        1 UNL1     0.0279
     78 H         9.038011   4.840565   -5.037434 H        1 UNL1     0.1553
     79 H         7.76489   3.364278   -4.682523 H        1 UNL1     0.1484
     80 H         4.017143   2.750016   -4.811231 H        1 UNL1     0.0317
     81 H         4.745855   4.280744   -5.275745 H        1 UNL1     0.0317
     82 H         6.658589   3.098998   -6.388681 H        1 UNL1     0.0428
     83 H         5.10246   2.619193   -7.028956 H        1 UNL1     0.0428
     84 H         6.897271   -0.01685   -4.212386 H        1 UNL1     0.0428
     85 H         7.801582   1.397623   -4.625437 H        1 UNL1     0.0428
     86 H         6.514838   1.462081   -2.488854 H        1 UNL1     0.0317
     87 H         5.017509   1.231583   -3.268104 H        1 UNL1     0.0317
     88 H         7.240362   0.91676   -7.399128 H        1 UNL1     0.0429
     89 H         6.888898   -0.573436   -6.52048 H        1 UNL1     0.0429
     90 H         4.340296   0.210256   -7.308146 H        1 UNL1     0.0308
     91 H         6.246637   1.090755   -9.554531 H        1 UNL1     0.0233
     92 H         4.477756   0.92792   -9.696095 H        1 UNL1     0.0233
     93 H         5.170375   2.157949   -8.660764 H        1 UNL1     0.0233
     94 H         4.641229   -1.447931   -9.182879 H        1 UNL1     0.0233
     95 H         6.345675   -1.549097   -8.714953 H        1 UNL1     0.0233
     96 H         5.078108   -2.026894   -7.562141 H        1 UNL1     0.0233
     97 H         4.111139   10.533701   -0.084473 H        1 UNL1     0.0280
     98 H         5.714571   11.158903   -0.358912 H        1 UNL1     0.0280
     99 H         4.524462   11.152067   -1.694323 H        1 UNL1     0.0280
     100 H         6.646914   10.746026   -3.01367 H        1 UNL1     0.2922
     101 H         4.705373   0.8937   2.42272 H        1 UNL1     0.0236
     102 H         6.013577   2.1384   2.496107 H        1 UNL1     0.0236
     103 H         6.32488   0.533001   1.911915 H        1 UNL1     0.0236
     104 H         4.33973   -0.547684   1.26086 H        1 UNL1     0.2098
     105 H         0.703624   1.284934   -0.929864 H        1 UNL1     0.0234
     106 H         1.289535   -0.40039   -1.016411 H        1 UNL1     0.0234
     107 H         0.0   -0.0   0.0 H        1 UNL1     0.0234
     108 H         1.191052   3.261285   1.755363 H        1 UNL1     0.2098
     109 H         1.067427   3.046015   -0.847961 H        1 UNL1     0.0234
     110 H         -0.193169   2.340407   -1.909005 H        1 UNL1     0.0234
     111 H         0.063042   4.049764   -1.872975 H        1 UNL1     0.0234
     112 H         -3.561039   -1.544795   1.453651 H        1 UNL1     0.0342
     113 H         -3.188332   0.078903   2.134044 H        1 UNL1     0.0342
     114 H         -4.400665   -0.100016   0.862742 H        1 UNL1     0.0342
     115 H         -2.646137   1.916063   3.335026 H        1 UNL1     0.0234
     116 H         -1.127956   1.92703   4.238238 H        1 UNL1     0.0234
     117 H         -1.64695   3.288044   3.222396 H        1 UNL1     0.0234
     118 H         0.917641   7.687047   -0.761284 H        1 UNL1     0.0309
     119 H         2.184277   7.794178   -2.023115 H        1 UNL1     0.0309
     120 H         1.43216   6.271199   -1.602387 H        1 UNL1     0.0309
     121 H         -0.373086   6.285695   2.81989 H        1 UNL1     0.0524
     122 H         -2.105638   6.010534   2.597616 H        1 UNL1     0.0524
     123 H         -1.277357   5.314556   4.012999 H        1 UNL1     0.0524
@<TRIPOS>BOND
     1     1     2    1
     2     1    42    1
     3     2     3    2
     4     3     4    1
     5     4     5    2
     6     5     7    1
     7     6    75    1
     8     6    76    1
     9     6    77    1
    10     7     9   am
    11     9    10    1
    12    10    11    2
    13    10    43    1
    14    11    14    1
    15    11    15    1
    16    12    13   ar
    17    12    27   ar
    18    12    43    1
    19    13    14    1
    20    13    30   ar
    21    14    17    2
    22    15    16    1
    23    16    17    1
    24    16    18    1
    25    16    22    1
    26    18    19    1
    27    19    20    1
    28    20    21    1
    29    21    22    1
    30    23    24    1
    31    23    88    1
    32    23    89    1
    33    24    25    1
    34    24    26    1
    35    24    90    1
    36    25    91    1
    37    25    92    1
    38    25    93    1
    39    26    94    1
    40    26    95    1
    41    26    96    1
    42    27    28   ar
    43    28    29   ar
    44    29    30   ar
    45    29    31    1
    46    30    33    1
    47    31    32    1
    48    32    33    1
    49    32    35    1
    50    34    97    1
    51    34    98    1
    52    34    99    1
    53    35    61    1
    54    36    37    1
    55    36    60    1
    56    37    38    1
    57    38    39    1
    58    39    40    1
    59    40    41    1
    60    41    42    1
    61    45   100    1
    62    47   101    1
    63    47   102    1
    64    47   103    1
    65    48   104    1
    66    49   105    1
    67    49   106    1
    68    49   107    1
    69    50   108    1
    70    51    59    1
    71    52   109    1
    72    52   110    1
    73    52   111    1
    74    53    54    1
    75    54    55    2
    76    54    56    1
    77    56   112    1
    78    56   113    1
    79    56   114    1
    80    57   115    1
    81    57   116    1
    82    57   117    1
    83    58   118    1
    84    58   119    1
    85    58   120    1
    86    59   121    1
    87    59   122    1
    88    59   123    1
    89    60    61    2
    90     1    47    1
    91     1    62    1
    92     2    63    1
    93     3    64    1
    94     4    65    1
    95     5     6    1
    96     7     8    2
    97     9    78    1
    98    15    79    1
    99    18    80    1
   100    18    81    1
   101    19    82    1
   102    19    83    1
   103    20    23    1
   104    21    84    1
   105    21    85    1
   106    22    86    1
   107    22    87    1
   108    27    45    1
   109    28    34    1
   110    32    58    1
   111    33    46    2
   112    36    51    1
   113    36    66    1
   114    37    52    1
   115    37    67    1
   116    38    53    1
   117    38    68    1
   118    42    48    1
   119    42    72    1
   120    43    44    2
   121    60    73    1
   122    61    74    1
   123    39    69    1
   124    39    57    1
   125    40    70    1
   126    40    50    1
   127    41    71    1
   128    41    49    1
