@<TRIPOS>MOLECULE
*****
 123 128 0 0 0
SMALL
GASTEIGER

@<TRIPOS>ATOM
     1 C         -3.871773   0.961872   -3.620864 C.3        1 UNL1     0.0009
     2 C         -4.840637   0.175783   -4.992142 C.2        1 UNL1     -0.0787
     3 C         -5.16157   0.064009   -6.399464 C.2        1 UNL1     -0.0649
     4 C         -6.17948   -1.062668   -7.14834 C.2        1 UNL1     -0.0542
     5 C         -6.517691   -1.686886   -8.374327 C.2        1 UNL1     0.0115
     6 C         -6.289472   -1.645584   -9.910404 C.3        1 UNL1     -0.0348
     7 C         -7.359729   -3.053284   -8.344042 C.2        1 UNL1     0.2441
     8 O         -8.558878   -3.101334   -8.581229 O.2        1 UNL1     -0.2702
     9 N         -6.582313   -4.222994   -8.284419 N.am        1 UNL1     -0.2772
     10 C         -6.310277   -4.552631   -6.976498 C.2        1 UNL1     0.1049
     11 C         -5.29112   -3.925218   -6.418023 C.2        1 UNL1     0.0801
     12 C         -7.39274   -4.863338   -4.742875 C.ar        1 UNL1     0.0753
     13 C         -6.377593   -4.001326   -4.21845 C.ar        1 UNL1     0.0305
     14 C         -5.217728   -3.611043   -5.016851 C.2        1 UNL1     0.0924
     15 N         -4.334757   -3.163481   -6.976283 N.pl3        1 UNL1     -0.3170
     16 C         -3.364211   -2.860542   -5.958186 C.3        1 UNL1     0.1275
     17 N         -4.143613   -2.90918   -4.666718 N.2        1 UNL1     -0.2557
     18 C         -2.384309   -4.028762   -5.905688 C.3        1 UNL1     0.0016
     19 C         -1.796218   -4.232946   -7.292788 C.3        1 UNL1     0.0026
     20 N         -1.127213   -3.005914   -7.702487 N.3        1 UNL1     -0.3018
     21 C         -1.975666   -1.812585   -7.724027 C.3        1 UNL1     0.0026
     22 C         -2.552142   -1.623871   -6.319763 C.3        1 UNL1     0.0016
     23 C         -0.283942   -3.185347   -8.867537 C.3        1 UNL1     0.0012
     24 C         -1.101083   -3.005981   -10.15667 C.3        1 UNL1     -0.0339
     25 C         -0.965703   -1.579571   -10.71442 C.3        1 UNL1     -0.0615
     26 C         -0.691241   -4.048485   -11.182338 C.3        1 UNL1     -0.0615
     27 C         -8.431066   -5.327969   -3.939064 C.ar        1 UNL1     0.1347
     28 C         -8.53753   -5.032068   -2.591786 C.ar        1 UNL1     0.0342
     29 C         -7.554365   -4.142443   -2.108963 C.ar        1 UNL1     0.1435
     30 C         -6.528975   -3.640105   -2.911118 C.ar        1 UNL1     0.0774
     31 O         -7.457637   -3.844731   -0.794802 O.3        1 UNL1     -0.4436
     32 C         -6.124235   -3.337385   -0.635079 C.3        1 UNL1     0.3143
     33 C         -5.720041   -2.845814   -2.010288 C.2        1 UNL1     0.2504
     34 C         -9.472061   -5.69069   -1.615584 C.3        1 UNL1     -0.0327
     35 O         -6.205643   -2.184982   0.212619 O.2        1 UNL1     -0.4528
     36 C         -2.903959   -2.03064   2.078939 C.3        1 UNL1     0.0854
     37 C         -1.437135   -1.955907   1.504167 C.3        1 UNL1     0.0236
     38 C         -0.563831   -0.72169   2.038765 C.3        1 UNL1     0.1131
     39 C         -1.154611   0.7443   1.974562 C.3        1 UNL1     0.0200
     40 C         -1.960942   1.27137   0.612775 C.3        1 UNL1     0.0661
     41 C         -1.404059   1.141648   -0.984305 C.3        1 UNL1     0.0091
     42 C         -2.328783   0.913699   -2.552211 C.3        1 UNL1     0.0661
     43 C         -7.253827   -5.318469   -6.148514 C.2        1 UNL1     0.2131
     44 O         -7.790561   -6.319171   -6.588116 O.2        1 UNL1     -0.2851
     45 O         -9.403439   -6.125854   -4.538488 O.3        1 UNL1     -0.5056
     46 O         -4.925615   -1.97833   -2.297014 O.2        1 UNL1     -0.2836
     47 C         -4.419351   2.382905   -3.319525 C.3        1 UNL1     -0.0566
     48 O         -1.596228   1.983097   -3.272536 O.3        1 UNL1     -0.3909
     49 C         -0.235998   0.181422   -1.017355 C.3        1 UNL1     -0.0577
     50 O         -3.330298   0.927087   0.676462 O.3        1 UNL1     -0.3910
     51 O         -3.322786   -0.923424   2.844503 O.3        1 UNL1     -0.3753
     52 C         -1.368628   -2.44127   0.019351 C.3        1 UNL1     -0.0564
     53 O         0.905161   -0.862507   1.765709 O.3        1 UNL1     -0.4608
     54 C         1.808867   0.166913   1.72647 C.2        1 UNL1     0.3042
     55 O         2.977284   0.120831   1.343694 O.2        1 UNL1     -0.2512
     56 C         1.236234   1.486683   2.158916 C.3        1 UNL1     0.0332
     57 C         -1.809314   1.063228   3.398579 C.3        1 UNL1     -0.0567
     58 C         -5.238191   -4.547277   -0.257433 C.3        1 UNL1     0.0210
     59 C         -4.420585   -1.180183   3.719019 C.3        1 UNL1     0.0372
     60 C         -3.964962   -2.277262   1.064735 C.2        1 UNL1     -0.0208
     61 C         -5.154908   -1.697882   0.900134 C.2        1 UNL1     0.0882
     62 H         -4.359547   0.28176   -2.912178 H        1 UNL1     0.0365
     63 H         -5.498898   -0.484583   -4.423742 H        1 UNL1     0.0576
     64 H         -4.616657   0.630904   -7.157624 H        1 UNL1     0.0615
     65 H         -6.727916   -1.512018   -6.316003 H        1 UNL1     0.0622
     66 H         -2.89986   -2.914808   2.731837 H        1 UNL1     0.0645
     67 H         -0.920803   -2.81041   1.975108 H        1 UNL1     0.0362
     68 H         -0.524948   -0.973963   3.109451 H        1 UNL1     0.0741
     69 H         -0.340148   1.451647   2.056525 H        1 UNL1     0.0359
     70 H         -1.941791   2.363645   0.790622 H        1 UNL1     0.0600
     71 H         -0.887211   2.115797   -1.088512 H        1 UNL1     0.0348
     72 H         -3.058739   1.291971   -1.821875 H        1 UNL1     0.0602
     73 H         -3.706658   -3.131604   0.489733 H        1 UNL1     0.0628
     74 H         -5.472363   -0.786256   1.407478 H        1 UNL1     0.1022
     75 H         -5.550217   -0.851756   -10.175686 H        1 UNL1     0.0279
     76 H         -5.850884   -2.533725   -10.359755 H        1 UNL1     0.0279
     77 H         -7.178149   -1.30779   -10.46344 H        1 UNL1     0.0279
     78 H         -5.692062   -4.066229   -8.752345 H        1 UNL1     0.1553
     79 H         -4.110054   -3.179475   -7.954131 H        1 UNL1     0.1484
     80 H         -1.603377   -3.807496   -5.168157 H        1 UNL1     0.0317
     81 H         -2.883645   -4.94348   -5.568632 H        1 UNL1     0.0317
     82 H         -2.565555   -4.526758   -8.02197 H        1 UNL1     0.0428
     83 H         -1.10182   -5.071574   -7.233073 H        1 UNL1     0.0428
     84 H         -1.431854   -0.891889   -7.957263 H        1 UNL1     0.0428
     85 H         -2.745912   -1.872708   -8.505322 H        1 UNL1     0.0428
     86 H         -3.055724   -0.675168   -6.338582 H        1 UNL1     0.0317
     87 H         -1.740146   -1.465943   -5.599473 H        1 UNL1     0.0317
     88 H         0.501424   -2.418636   -8.842044 H        1 UNL1     0.0429
     89 H         0.218456   -4.161079   -8.849693 H        1 UNL1     0.0429
     90 H         -2.158897   -3.197648   -9.941014 H        1 UNL1     0.0308
     91 H         -1.501657   -1.470518   -11.662029 H        1 UNL1     0.0233
     92 H         -1.348439   -0.847348   -9.999598 H        1 UNL1     0.0233
     93 H         0.078279   -1.303317   -10.905782 H        1 UNL1     0.0233
     94 H         0.250398   -3.75799   -11.660633 H        1 UNL1     0.0233
     95 H         -0.536748   -5.013984   -10.692537 H        1 UNL1     0.0233
     96 H         -1.452062   -4.164551   -11.959286 H        1 UNL1     0.0233
     97 H         -10.506682   -5.410406   -1.789456 H        1 UNL1     0.0280
     98 H         -9.441194   -6.785737   -1.687534 H        1 UNL1     0.0280
     99 H         -9.201737   -5.394672   -0.588748 H        1 UNL1     0.0280
     100 H         -9.205836   -7.045931   -4.544422 H        1 UNL1     0.2922
     101 H         -5.263741   2.313824   -2.63404 H        1 UNL1     0.0236
     102 H         -4.667372   2.946239   -4.218482 H        1 UNL1     0.0236
     103 H         -3.680323   3.008045   -2.791103 H        1 UNL1     0.0236
     104 H         -2.075041   2.821561   -3.121914 H        1 UNL1     0.2098
     105 H         -0.454581   -0.775796   -1.48401 H        1 UNL1     0.0234
     106 H         0.685024   0.598553   -1.424352 H        1 UNL1     0.0234
     107 H         0.0   0.0   0.0 H        1 UNL1     0.0234
     108 H         -3.685048   0.979069   -0.231953 H        1 UNL1     0.2098
     109 H         -2.00805   -1.842269   -0.644011 H        1 UNL1     0.0234
     110 H         -0.348545   -2.465604   -0.378872 H        1 UNL1     0.0234
     111 H         -1.719755   -3.476569   -0.084634 H        1 UNL1     0.0234
     112 H         0.980483   1.450909   3.22224 H        1 UNL1     0.0342
     113 H         1.910693   2.314943   1.946938 H        1 UNL1     0.0342
     114 H         0.309168   1.659685   1.595193 H        1 UNL1     0.0342
     115 H         -1.10685   0.875523   4.22229 H        1 UNL1     0.0234
     116 H         -2.169917   2.088589   3.501772 H        1 UNL1     0.0234
     117 H         -2.636508   0.382898   3.664741 H        1 UNL1     0.0234
     118 H         -4.236529   -4.487404   -0.71797 H        1 UNL1     0.0309
     119 H         -5.128043   -4.678288   0.823726 H        1 UNL1     0.0309
     120 H         -5.635284   -5.494388   -0.638752 H        1 UNL1     0.0309
     121 H         -5.335375   -1.098016   3.132705 H        1 UNL1     0.0524
     122 H         -4.388448   -2.197544   4.14326 H        1 UNL1     0.0524
     123 H         -4.430249   -0.459417   4.531729 H        1 UNL1     0.0524
@<TRIPOS>BOND
     1     1     2    1
     2     1    42    1
     3     2     3    2
     4     3     4    1
     5     4     5    2
     6     5     7    1
     7     6    75    1
     8     6    76    1
     9     6    77    1
    10     7     9   am
    11     9    10    1
    12    10    11    2
    13    10    43    1
    14    11    14    1
    15    11    15    1
    16    12    13   ar
    17    12    27   ar
    18    12    43    1
    19    13    14    1
    20    13    30   ar
    21    14    17    2
    22    15    16    1
    23    16    17    1
    24    16    18    1
    25    16    22    1
    26    18    19    1
    27    19    20    1
    28    20    21    1
    29    21    22    1
    30    23    24    1
    31    23    88    1
    32    23    89    1
    33    24    25    1
    34    24    26    1
    35    24    90    1
    36    25    91    1
    37    25    92    1
    38    25    93    1
    39    26    94    1
    40    26    95    1
    41    26    96    1
    42    27    28   ar
    43    28    29   ar
    44    29    30   ar
    45    29    31    1
    46    30    33    1
    47    31    32    1
    48    32    33    1
    49    32    35    1
    50    34    97    1
    51    34    98    1
    52    34    99    1
    53    35    61    1
    54    36    37    1
    55    36    60    1
    56    37    38    1
    57    38    39    1
    58    39    40    1
    59    40    41    1
    60    41    42    1
    61    45   100    1
    62    47   101    1
    63    47   102    1
    64    47   103    1
    65    48   104    1
    66    49   105    1
    67    49   106    1
    68    49   107    1
    69    50   108    1
    70    51    59    1
    71    52   109    1
    72    52   110    1
    73    52   111    1
    74    53    54    1
    75    54    55    2
    76    54    56    1
    77    56   112    1
    78    56   113    1
    79    56   114    1
    80    57   115    1
    81    57   116    1
    82    57   117    1
    83    58   118    1
    84    58   119    1
    85    58   120    1
    86    59   121    1
    87    59   122    1
    88    59   123    1
    89    60    61    2
    90     1    47    1
    91     1    62    1
    92     2    63    1
    93     3    64    1
    94     4    65    1
    95     5     6    1
    96     7     8    2
    97     9    78    1
    98    15    79    1
    99    18    80    1
   100    18    81    1
   101    19    82    1
   102    19    83    1
   103    20    23    1
   104    21    84    1
   105    21    85    1
   106    22    86    1
   107    22    87    1
   108    27    45    1
   109    28    34    1
   110    32    58    1
   111    33    46    2
   112    36    51    1
   113    36    66    1
   114    37    52    1
   115    37    67    1
   116    38    53    1
   117    38    68    1
   118    42    48    1
   119    42    72    1
   120    43    44    2
   121    60    73    1
   122    61    74    1
   123    39    69    1
   124    39    57    1
   125    40    70    1
   126    40    50    1
   127    41    71    1
   128    41    49    1
