@<TRIPOS>MOLECULE
*****
 123 128 0 0 0
SMALL
GASTEIGER

@<TRIPOS>ATOM
     1 C         5.164771   1.758849   0.480483 C.3        1 UNL1     0.0009
     2 C         6.597668   2.568927   -0.372522 C.2        1 UNL1     -0.0787
     3 C         7.878078   2.474173   -1.041564 C.2        1 UNL1     -0.0649
     4 C         8.751092   3.712001   -1.797862 C.2        1 UNL1     -0.0542
     5 C         9.768166   4.007863   -2.738663 C.2        1 UNL1     0.0115
     6 C         10.895482   3.385774   -3.60785 C.3        1 UNL1     -0.0348
     7 C         9.858937   5.492033   -3.343633 C.2        1 UNL1     0.2441
     8 O         10.682069   6.314926   -2.967036 O.2        1 UNL1     -0.2702
     9 N         9.105368   5.698845   -4.512185 N.am        1 UNL1     -0.2772
     10 C         7.822648   6.082509   -4.194768 C.2        1 UNL1     0.1049
     11 C         6.979595   5.109009   -3.901883 C.2        1 UNL1     0.0801
     12 C         6.524483   7.684804   -2.778876 C.ar        1 UNL1     0.0753
     13 C         5.768867   6.554796   -2.33084 C.ar        1 UNL1     0.0305
     14 C         5.886872   5.250107   -2.978074 C.2        1 UNL1     0.0924
     15 N         7.104551   3.780477   -4.062864 N.pl3        1 UNL1     -0.3170
     16 C         5.836716   3.178319   -3.746235 C.3        1 UNL1     0.1275
     17 N         5.200803   4.131075   -2.763588 N.2        1 UNL1     -0.2557
     18 C         4.980593   3.237134   -5.007701 C.3        1 UNL1     0.0016
     19 C         5.734057   2.55594   -6.139008 C.3        1 UNL1     0.0026
     20 N         6.007997   1.17794   -5.755469 N.3        1 UNL1     -0.3018
     21 C         6.774777   1.017647   -4.518245 C.3        1 UNL1     0.0026
     22 C         5.997416   1.705229   -3.394485 C.3        1 UNL1     0.0016
     23 C         6.451414   0.360639   -6.867244 C.3        1 UNL1     0.0012
     24 C         5.294034   0.10995   -7.846725 C.3        1 UNL1     -0.0339
     25 C         5.324767   1.103564   -9.019689 C.3        1 UNL1     -0.0615
     26 C         5.324888   -1.328909   -8.332021 C.3        1 UNL1     -0.0615
     27 C         6.318564   8.951432   -2.237239 C.ar        1 UNL1     0.1347
     28 C         5.361356   9.217864   -1.274526 C.ar        1 UNL1     0.0342
     29 C         4.663283   8.081425   -0.813695 C.ar        1 UNL1     0.1435
     30 C         4.884098   6.800454   -1.321211 C.ar        1 UNL1     0.0774
     31 O         3.624198   8.191835   0.042528 O.3        1 UNL1     -0.4436
     32 C         2.904704   6.9577   -0.099296 C.3        1 UNL1     0.3143
     33 C         3.918707   5.967316   -0.635158 C.2        1 UNL1     0.2504
     34 C         4.912812   10.582522   -0.831109 C.3        1 UNL1     -0.0327
     35 O         2.548263   6.5187   1.217321 O.2        1 UNL1     -0.4528
     36 C         -0.691786   4.580309   0.826407 C.3        1 UNL1     0.0854
     37 C         -0.996745   3.32016   -0.071674 C.3        1 UNL1     0.0236
     38 C         -1.592729   2.056951   0.716267 C.3        1 UNL1     0.1131
     39 C         -0.862621   1.525976   2.01522 C.3        1 UNL1     0.0200
     40 C         0.798965   1.383805   2.052056 C.3        1 UNL1     0.0661
     41 C         1.75698   0.618332   0.879934 C.3        1 UNL1     0.0091
     42 C         3.462399   0.985071   0.312085 C.3        1 UNL1     0.0661
     43 C         7.472137   7.480381   -3.902451 C.2        1 UNL1     0.2131
     44 O         7.868369   8.380128   -4.620918 O.2        1 UNL1     -0.2851
     45 O         7.127549   9.98875   -2.696537 O.3        1 UNL1     -0.5056
     46 O         3.937499   4.763664   -0.505845 O.2        1 UNL1     -0.2836
     47 C         5.565621   1.328496   1.917179 C.3        1 UNL1     -0.0566
     48 O         3.914067   -0.425203   0.391079 O.3        1 UNL1     -0.3909
     49 C         0.920165   0.385484   -0.358216 C.3        1 UNL1     -0.0577
     50 O         1.397642   2.602438   2.444793 O.3        1 UNL1     -0.3910
     51 O         -0.811992   4.388744   2.217911 O.3        1 UNL1     -0.3753
     52 C         0.045143   3.163193   -1.227001 C.3        1 UNL1     -0.0564
     53 O         -2.195452   1.017787   -0.183282 O.3        1 UNL1     -0.4608
     54 C         -2.426322   -0.289842   0.155442 C.2        1 UNL1     0.3042
     55 O         -1.856273   -1.287284   -0.285003 O.2        1 UNL1     -0.2512
     56 C         -3.463305   -0.458884   1.229129 C.3        1 UNL1     0.0332
     57 C         -1.581854   2.192004   3.279058 C.3        1 UNL1     -0.0567
     58 C         1.826289   7.20185   -1.180472 C.3        1 UNL1     0.0210
     59 C         -1.125752   5.566234   2.960163 C.3        1 UNL1     0.0372
     60 C         0.635332   5.212396   0.593198 C.2        1 UNL1     -0.0208
     61 C         1.549552   5.648487   1.460821 C.2        1 UNL1     0.0882
     62 H         4.687051   2.741937   0.570102 H        1 UNL1     0.0365
     63 H         6.329522   3.622052   -0.26531 H        1 UNL1     0.0576
     64 H         8.33716   1.508527   -1.264896 H        1 UNL1     0.0615
     65 H         8.263004   4.625987   -1.448747 H        1 UNL1     0.0622
     66 H         -1.438745   5.325666   0.518932 H        1 UNL1     0.0645
     67 H         -1.86446   3.62846   -0.680427 H        1 UNL1     0.0362
     68 H         -2.539807   2.491468   1.070895 H        1 UNL1     0.0741
     69 H         -1.191575   0.513971   2.210266 H        1 UNL1     0.0359
     70 H         0.914311   0.722676   2.932206 H        1 UNL1     0.0600
     71 H         1.803733   -0.403239   1.305567 H        1 UNL1     0.0348
     72 H         3.35798   1.471913   1.292594 H        1 UNL1     0.0602
     73 H         0.750214   5.411097   -0.443416 H        1 UNL1     0.0628
     74 H         1.53513   5.436538   2.530451 H        1 UNL1     0.1022
     75 H         10.942617   2.280411   -3.456241 H        1 UNL1     0.0279
     76 H         10.778966   3.469588   -4.686029 H        1 UNL1     0.0279
     77 H         11.900748   3.692163   -3.283401 H        1 UNL1     0.0279
     78 H         9.043833   4.829384   -5.037853 H        1 UNL1     0.1553
     79 H         7.769142   3.354575   -4.682427 H        1 UNL1     0.1484
     80 H         4.020813   2.743999   -4.811724 H        1 UNL1     0.0317
     81 H         4.751176   4.273734   -5.276919 H        1 UNL1     0.0317
     82 H         6.663   3.089442   -6.388712 H        1 UNL1     0.0428
     83 H         5.10655   2.610837   -7.029104 H        1 UNL1     0.0428
     84 H         6.898015   -0.025415   -4.2106 H        1 UNL1     0.0428
     85 H         7.803847   1.387916   -4.624223 H        1 UNL1     0.0428
     86 H         6.516637   1.45487   -2.487998 H        1 UNL1     0.0317
     87 H         5.019272   1.225435   -3.267491 H        1 UNL1     0.0317
     88 H         7.245034   0.904684   -7.395901 H        1 UNL1     0.0429
     89 H         6.886832   -0.58465   -6.518513 H        1 UNL1     0.0429
     90 H         4.342094   0.226451   -7.315265 H        1 UNL1     0.0308
     91 H         6.274316   1.050984   -9.560702 H        1 UNL1     0.0233
     92 H         4.504837   0.906643   -9.714345 H        1 UNL1     0.0233
     93 H         5.203496   2.142572   -8.690159 H        1 UNL1     0.0233
     94 H         4.628566   -1.46083   -9.167227 H        1 UNL1     0.0233
     95 H         6.32803   -1.582338   -8.686199 H        1 UNL1     0.0233
     96 H         5.045388   -2.024635   -7.535897 H        1 UNL1     0.0233
     97 H         4.119333   10.530291   -0.091587 H        1 UNL1     0.0280
     98 H         5.72478   11.152526   -0.36094 H        1 UNL1     0.0280
     99 H         4.538716   11.14843   -1.699957 H        1 UNL1     0.0280
     100 H         6.658181   10.739295   -3.015909 H        1 UNL1     0.2922
     101 H         4.704976   0.892498   2.423983 H        1 UNL1     0.0236
     102 H         6.016204   2.134095   2.495945 H        1 UNL1     0.0236
     103 H         6.323513   0.527386   1.913242 H        1 UNL1     0.0236
     104 H         4.336057   -0.551341   1.263423 H        1 UNL1     0.2098
     105 H         0.704228   1.284539   -0.929951 H        1 UNL1     0.0234
     106 H         1.289518   -0.401016   -1.016186 H        1 UNL1     0.0234
     107 H         0.0   -0.0   0.0 H        1 UNL1     0.0234
     108 H         1.196592   3.2609   1.752136 H        1 UNL1     0.2098
     109 H         1.071163   3.051387   -0.849519 H        1 UNL1     0.0234
     110 H         -0.18731   2.336404   -1.906801 H        1 UNL1     0.0234
     111 H         0.062875   4.046804   -1.878818 H        1 UNL1     0.0234
     112 H         -3.59305   -1.521175   1.457271 H        1 UNL1     0.0342
     113 H         -3.21899   0.106589   2.127124 H        1 UNL1     0.0342
     114 H         -4.419661   -0.077556   0.845542 H        1 UNL1     0.0342
     115 H         -2.650866   1.941483   3.319566 H        1 UNL1     0.0234
     116 H         -1.142402   1.912032   4.238509 H        1 UNL1     0.0234
     117 H         -1.62284   3.293834   3.231807 H        1 UNL1     0.0234
     118 H         0.925258   7.686422   -0.765335 H        1 UNL1     0.0309
     119 H         2.192315   7.79157   -2.02691 H        1 UNL1     0.0309
     120 H         1.438566   6.269584   -1.605511 H        1 UNL1     0.0309
     121 H         -0.306498   6.271247   2.821827 H        1 UNL1     0.0524
     122 H         -2.04746   6.053799   2.601316 H        1 UNL1     0.0524
     123 H         -1.240579   5.327033   4.013582 H        1 UNL1     0.0524
@<TRIPOS>BOND
     1     1     2    1
     2     1    42    1
     3     2     3    2
     4     3     4    1
     5     4     5    2
     6     5     7    1
     7     6    75    1
     8     6    76    1
     9     6    77    1
    10     7     9   am
    11     9    10    1
    12    10    11    2
    13    10    43    1
    14    11    14    1
    15    11    15    1
    16    12    13   ar
    17    12    27   ar
    18    12    43    1
    19    13    14    1
    20    13    30   ar
    21    14    17    2
    22    15    16    1
    23    16    17    1
    24    16    18    1
    25    16    22    1
    26    18    19    1
    27    19    20    1
    28    20    21    1
    29    21    22    1
    30    23    24    1
    31    23    88    1
    32    23    89    1
    33    24    25    1
    34    24    26    1
    35    24    90    1
    36    25    91    1
    37    25    92    1
    38    25    93    1
    39    26    94    1
    40    26    95    1
    41    26    96    1
    42    27    28   ar
    43    28    29   ar
    44    29    30   ar
    45    29    31    1
    46    30    33    1
    47    31    32    1
    48    32    33    1
    49    32    35    1
    50    34    97    1
    51    34    98    1
    52    34    99    1
    53    35    61    1
    54    36    37    1
    55    36    60    1
    56    37    38    1
    57    38    39    1
    58    39    40    1
    59    40    41    1
    60    41    42    1
    61    45   100    1
    62    47   101    1
    63    47   102    1
    64    47   103    1
    65    48   104    1
    66    49   105    1
    67    49   106    1
    68    49   107    1
    69    50   108    1
    70    51    59    1
    71    52   109    1
    72    52   110    1
    73    52   111    1
    74    53    54    1
    75    54    55    2
    76    54    56    1
    77    56   112    1
    78    56   113    1
    79    56   114    1
    80    57   115    1
    81    57   116    1
    82    57   117    1
    83    58   118    1
    84    58   119    1
    85    58   120    1
    86    59   121    1
    87    59   122    1
    88    59   123    1
    89    60    61    2
    90     1    47    1
    91     1    62    1
    92     2    63    1
    93     3    64    1
    94     4    65    1
    95     5     6    1
    96     7     8    2
    97     9    78    1
    98    15    79    1
    99    18    80    1
   100    18    81    1
   101    19    82    1
   102    19    83    1
   103    20    23    1
   104    21    84    1
   105    21    85    1
   106    22    86    1
   107    22    87    1
   108    27    45    1
   109    28    34    1
   110    32    58    1
   111    33    46    2
   112    36    51    1
   113    36    66    1
   114    37    52    1
   115    37    67    1
   116    38    53    1
   117    38    68    1
   118    42    48    1
   119    42    72    1
   120    43    44    2
   121    60    73    1
   122    61    74    1
   123    39    69    1
   124    39    57    1
   125    40    70    1
   126    40    50    1
   127    41    71    1
   128    41    49    1
