@<TRIPOS>MOLECULE
*****
 123 128 0 0 0
SMALL
GASTEIGER

@<TRIPOS>ATOM
     1 C         4.056335   0.19264   1.440544 C.3        1 UNL1     0.0009
     2 C         4.687435   1.021661   2.973995 C.2        1 UNL1     -0.0787
     3 C         5.414721   2.099629   3.610458 C.2        1 UNL1     -0.0649
     4 C         5.569982   2.414555   5.266681 C.2        1 UNL1     -0.0542
     5 C         5.878476   3.399286   6.237358 C.2        1 UNL1     0.0115
     6 C         6.444763   4.831892   6.438058 C.3        1 UNL1     -0.0348
     7 C         5.426373   3.158845   7.758798 C.2        1 UNL1     0.2441
     8 O         6.199903   2.792533   8.632865 O.2        1 UNL1     -0.2702
     9 N         4.146798   3.646253   8.077033 N.am        1 UNL1     -0.2772
     10 C         3.190489   2.692608   7.813674 C.2        1 UNL1     0.1049
     11 C         2.777157   2.612996   6.561859 C.2        1 UNL1     0.0801
     12 C         2.635821   0.28271   8.190596 C.ar        1 UNL1     0.0753
     13 C         2.399781   0.197691   6.78146 C.ar        1 UNL1     0.0305
     14 C         2.335678   1.392593   5.942919 C.2        1 UNL1     0.0924
     15 N         2.980674   3.449988   5.530087 N.pl3        1 UNL1     -0.3170
     16 C         2.173434   2.994999   4.429359 C.3        1 UNL1     0.1275
     17 N         2.03206   1.509202   4.653289 N.2        1 UNL1     -0.2557
     18 C         0.779356   3.585987   4.616392 C.3        1 UNL1     0.0016
     19 C         0.902161   5.09772   4.722079 C.3        1 UNL1     0.0026
     20 N         1.526505   5.602398   3.506956 N.3        1 UNL1     -0.3018
     21 C         2.847157   5.044493   3.208648 C.3        1 UNL1     0.0026
     22 C         2.699486   3.525688   3.102262 C.3        1 UNL1     0.0016
     23 C         1.419571   7.041669   3.373885 C.3        1 UNL1     0.0012
     24 C         1.184273   7.693404   4.745611 C.3        1 UNL1     -0.0339
     25 C         0.108892   8.789734   4.670295 C.3        1 UNL1     -0.0615
     26 C         0.829561   6.632046   5.772489 C.3        1 UNL1     -0.0615
     27 C         2.575626   -0.847839   9.001986 C.ar        1 UNL1     0.1347
     28 C         2.250628   -2.105789   8.526605 C.ar        1 UNL1     0.0342
     29 C         2.07036   -2.174126   7.12875 C.ar        1 UNL1     0.1435
     30 C         2.163135   -1.056538   6.298321 C.ar        1 UNL1     0.0774
     31 O         1.642033   -3.305722   6.52789 O.3        1 UNL1     -0.4436
     32 C         1.137073   -2.87214   5.255925 C.3        1 UNL1     0.3143
     33 C         1.837088   -1.556987   4.979226 C.2        1 UNL1     0.2504
     34 C         1.921876   -3.30815   9.367051 C.3        1 UNL1     -0.0327
     35 O         1.600225   -3.806171   4.272905 O.2        1 UNL1     -0.4528
     36 C         -1.045172   -3.849878   1.551132 C.3        1 UNL1     0.0854
     37 C         -1.602207   -2.656085   0.683898 C.3        1 UNL1     0.0236
     38 C         -1.505659   -2.870521   -0.902431 C.3        1 UNL1     0.1131
     39 C         -0.131298   -3.305555   -1.553696 C.3        1 UNL1     0.0200
     40 C         1.296306   -2.590643   -1.070699 C.3        1 UNL1     0.0661
     41 C         1.580033   -0.92282   -0.946307 C.3        1 UNL1     0.0091
     42 C         2.652052   0.019203   0.206417 C.3        1 UNL1     0.0661
     43 C         2.8587   1.629118   8.773496 C.2        1 UNL1     0.2131
     44 O         2.682722   1.890912   9.949605 O.2        1 UNL1     -0.2851
     45 O         2.863155   -0.686336   10.355752 O.3        1 UNL1     -0.5056
     46 O         2.088868   -1.047728   3.91006 O.2        1 UNL1     -0.2836
     47 C         5.214839   -0.53137   0.703211 C.3        1 UNL1     -0.0566
     48 O         3.267474   0.845264   -0.860351 O.3        1 UNL1     -0.3909
     49 C         0.255029   -0.196317   -1.00997 C.3        1 UNL1     -0.0577
     50 O         1.835868   -3.257642   0.052559 O.3        1 UNL1     -0.3910
     51 O         -0.379233   -4.869226   0.840579 O.3        1 UNL1     -0.3753
     52 C         -1.324073   -1.270911   1.353884 C.3        1 UNL1     -0.0564
     53 O         -2.342979   -1.906355   -1.690852 O.3        1 UNL1     -0.4608
     54 C         -3.0009   -2.194427   -2.857936 C.2        1 UNL1     0.3042
     55 O         -4.212537   -2.338207   -3.016371 O.2        1 UNL1     -0.2512
     56 C         -2.095612   -2.277762   -4.053855 C.3        1 UNL1     0.0332
     57 C         -0.152939   -4.897432   -1.707436 C.3        1 UNL1     -0.0567
     58 C         -0.372652   -2.601739   5.453773 C.3        1 UNL1     0.0210
     59 C         -1.167231   -6.029118   0.576808 C.3        1 UNL1     0.0372
     60 C         -0.148216   -3.449771   2.669409 C.2        1 UNL1     -0.0208
     61 C         1.016228   -3.96246   3.069365 C.2        1 UNL1     0.0882
     62 H         3.568171   -0.559961   2.071416 H        1 UNL1     0.0365
     63 H         4.373986   0.305405   3.736358 H        1 UNL1     0.0576
     64 H         5.813805   2.938451   3.035812 H        1 UNL1     0.0615
     65 H         5.220713   1.493394   5.740976 H        1 UNL1     0.0622
     66 H         -1.936336   -4.288444   2.021805 H        1 UNL1     0.0645
     67 H         -2.693665   -2.69449   0.844534 H        1 UNL1     0.0362
     68 H         -2.168827   -3.74228   -1.010906 H        1 UNL1     0.0741
     69 H         -0.161758   -3.082999   -2.611972 H        1 UNL1     0.0359
     70 H         1.952488   -2.888479   -1.910805 H        1 UNL1     0.0600
     71 H         1.987388   -0.720201   -1.956241 H        1 UNL1     0.0348
     72 H         3.018377   -1.017404   0.230258 H        1 UNL1     0.0602
     73 H         -0.630931   -2.708097   3.256055 H        1 UNL1     0.0628
     74 H         1.602272   -4.682182   2.496836 H        1 UNL1     0.1022
     75 H         7.490499   4.897725   6.051876 H        1 UNL1     0.0279
     76 H         5.944337   5.631616   5.896685 H        1 UNL1     0.0279
     77 H         6.588597   5.087687   7.498049 H        1 UNL1     0.0279
     78 H         3.936808   4.458141   7.500128 H        1 UNL1     0.1553
     79 H         3.265784   4.406194   5.636461 H        1 UNL1     0.1484
     80 H         0.150199   3.293662   3.766996 H        1 UNL1     0.0317
     81 H         0.300447   3.18211   5.514825 H        1 UNL1     0.0317
     82 H         1.47138   5.398594   5.613918 H        1 UNL1     0.0428
     83 H         -0.102939   5.498562   4.856799 H        1 UNL1     0.0428
     84 H         3.258679   5.379194   2.251342 H        1 UNL1     0.0428
     85 H         3.599131   5.357203   3.946255 H        1 UNL1     0.0428
     86 H         3.65   3.166035   2.754179 H        1 UNL1     0.0317
     87 H         2.016459   3.272138   2.282333 H        1 UNL1     0.0317
     88 H         2.366683   7.41824   2.965882 H        1 UNL1     0.0429
     89 H         0.630386   7.318879   2.66317 H        1 UNL1     0.0429
     90 H         2.120423   8.145865   5.093629 H        1 UNL1     0.0308
     91 H         -0.800825   8.491586   5.200036 H        1 UNL1     0.0233
     92 H         0.480682   9.725328   5.094613 H        1 UNL1     0.0233
     93 H         -0.184063   9.01717   3.638169 H        1 UNL1     0.0233
     94 H         -0.211348   6.315794   5.644698 H        1 UNL1     0.0233
     95 H         1.467567   5.754073   5.638049 H        1 UNL1     0.0233
     96 H         0.954309   7.006192   6.792499 H        1 UNL1     0.0233
     97 H         2.406627   -3.271401   10.33808 H        1 UNL1     0.0280
     98 H         0.846175   -3.388885   9.571024 H        1 UNL1     0.0280
     99 H         2.254564   -4.222573   8.849127 H        1 UNL1     0.0280
     100 H         3.644636   -0.193217   10.533916 H        1 UNL1     0.2922
     101 H         4.808696   -1.176315   -0.075729 H        1 UNL1     0.0236
     102 H         5.879797   -1.071747   1.376121 H        1 UNL1     0.0236
     103 H         5.870607   0.175315   0.167714 H        1 UNL1     0.0236
     104 H         4.032003   0.349388   -1.213301 H        1 UNL1     0.2098
     105 H         0.289112   0.754757   -1.53543 H        1 UNL1     0.0234
     106 H         -0.577641   -0.798753   -1.372817 H        1 UNL1     0.0234
     107 H         -0.0   0.0   0.0 H        1 UNL1     0.0234
     108 H         2.761061   -2.960398   0.149678 H        1 UNL1     0.2098
     109 H         -1.994783   -0.485278   0.978863 H        1 UNL1     0.0234
     110 H         -1.374027   -1.304034   2.447571 H        1 UNL1     0.0234
     111 H         -0.305725   -0.91725   1.144508 H        1 UNL1     0.0234
     112 H         -1.050332   -2.275487   -3.730236 H        1 UNL1     0.0342
     113 H         -2.311614   -3.148487   -4.671128 H        1 UNL1     0.0342
     114 H         -2.259074   -1.383491   -4.670883 H        1 UNL1     0.0342
     115 H         0.02978   -5.210072   -2.744768 H        1 UNL1     0.0234
     116 H         0.572504   -5.414317   -1.07608 H        1 UNL1     0.0234
     117 H         -1.145023   -5.343861   -1.521931 H        1 UNL1     0.0234
     118 H         -0.94948   -3.536   5.569672 H        1 UNL1     0.0309
     119 H         -0.583568   -1.943017   6.302184 H        1 UNL1     0.0309
     120 H         -0.832812   -2.127557   4.579982 H        1 UNL1     0.0309
     121 H         -0.531276   -6.750085   0.063853 H        1 UNL1     0.0524
     122 H         -1.531436   -6.50666   1.501657 H        1 UNL1     0.0524
     123 H         -2.019175   -5.771081   -0.04585 H        1 UNL1     0.0524
@<TRIPOS>BOND
     1     1     2    1
     2     1    42    1
     3     2     3    2
     4     3     4    1
     5     4     5    2
     6     5     7    1
     7     6    75    1
     8     6    76    1
     9     6    77    1
    10     7     9   am
    11     9    10    1
    12    10    11    2
    13    10    43    1
    14    11    14    1
    15    11    15    1
    16    12    13   ar
    17    12    27   ar
    18    12    43    1
    19    13    14    1
    20    13    30   ar
    21    14    17    2
    22    15    16    1
    23    16    17    1
    24    16    18    1
    25    16    22    1
    26    18    19    1
    27    19    20    1
    28    20    21    1
    29    21    22    1
    30    23    24    1
    31    23    88    1
    32    23    89    1
    33    24    25    1
    34    24    26    1
    35    24    90    1
    36    25    91    1
    37    25    92    1
    38    25    93    1
    39    26    94    1
    40    26    95    1
    41    26    96    1
    42    27    28   ar
    43    28    29   ar
    44    29    30   ar
    45    29    31    1
    46    30    33    1
    47    31    32    1
    48    32    33    1
    49    32    35    1
    50    34    97    1
    51    34    98    1
    52    34    99    1
    53    35    61    1
    54    36    37    1
    55    36    60    1
    56    37    38    1
    57    38    39    1
    58    39    40    1
    59    40    41    1
    60    41    42    1
    61    45   100    1
    62    47   101    1
    63    47   102    1
    64    47   103    1
    65    48   104    1
    66    49   105    1
    67    49   106    1
    68    49   107    1
    69    50   108    1
    70    51    59    1
    71    52   109    1
    72    52   110    1
    73    52   111    1
    74    53    54    1
    75    54    55    2
    76    54    56    1
    77    56   112    1
    78    56   113    1
    79    56   114    1
    80    57   115    1
    81    57   116    1
    82    57   117    1
    83    58   118    1
    84    58   119    1
    85    58   120    1
    86    59   121    1
    87    59   122    1
    88    59   123    1
    89    60    61    2
    90     1    47    1
    91     1    62    1
    92     2    63    1
    93     3    64    1
    94     4    65    1
    95     5     6    1
    96     7     8    2
    97     9    78    1
    98    15    79    1
    99    18    80    1
   100    18    81    1
   101    19    82    1
   102    19    83    1
   103    20    23    1
   104    21    84    1
   105    21    85    1
   106    22    86    1
   107    22    87    1
   108    27    45    1
   109    28    34    1
   110    32    58    1
   111    33    46    2
   112    36    51    1
   113    36    66    1
   114    37    52    1
   115    37    67    1
   116    38    53    1
   117    38    68    1
   118    42    48    1
   119    42    72    1
   120    43    44    2
   121    60    73    1
   122    61    74    1
   123    39    69    1
   124    39    57    1
   125    40    70    1
   126    40    50    1
   127    41    71    1
   128    41    49    1
