@<TRIPOS>MOLECULE
*****
 123 128 0 0 0
SMALL
GASTEIGER

@<TRIPOS>ATOM
     1 C         2.99069   0.419827   4.55505 C.3        1 UNL1     0.0009
     2 C         4.600826   -0.023112   5.360225 C.2        1 UNL1     -0.0787
     3 C         5.354842   -0.815979   6.308311 C.2        1 UNL1     -0.0649
     4 C         7.031957   -0.846625   6.537883 C.2        1 UNL1     -0.0542
     5 C         8.119101   -1.590796   7.058847 C.2        1 UNL1     0.0115
     6 C         8.497713   -2.823948   7.924475 C.3        1 UNL1     -0.0348
     7 C         9.607459   -1.234859   6.573987 C.2        1 UNL1     0.2441
     8 O         10.392157   -0.588326   7.254258 O.2        1 UNL1     -0.2702
     9 N         10.038204   -1.933971   5.432999 N.am        1 UNL1     -0.2772
     10 C         9.679286   -1.256198   4.290579 C.2        1 UNL1     0.1049
     11 C         8.444895   -1.449541   3.862656 C.2        1 UNL1     0.0801
     12 C         9.734596   1.007186   3.22692 C.ar        1 UNL1     0.0753
     13 C         8.337212   0.834279   2.969958 C.ar        1 UNL1     0.0305
     14 C         7.677622   -0.455245   3.162624 C.2        1 UNL1     0.0924
     15 N         7.533962   -2.363981   4.237526 N.pl3        1 UNL1     -0.3170
     16 C         6.410993   -2.257335   3.344317 C.3        1 UNL1     0.1275
     17 N         6.429282   -0.820065   2.88427 N.2        1 UNL1     -0.2557
     18 C         6.730712   -3.100088   2.113362 C.3        1 UNL1     0.0016
     19 C         7.042877   -4.518584   2.56282 C.3        1 UNL1     0.0026
     20 N         5.888284   -5.048366   3.275051 N.3        1 UNL1     -0.3018
     21 C         5.465836   -4.269459   4.440903 C.3        1 UNL1     0.0026
     22 C         5.152909   -2.849568   3.965632 C.3        1 UNL1     0.0016
     23 C         5.962575   -6.480785   3.483141 C.3        1 UNL1     0.0012
     24 C         6.731529   -6.798172   4.775322 C.3        1 UNL1     -0.0339
     25 C         7.538778   -8.100152   4.64397 C.3        1 UNL1     -0.0615
     26 C         7.619507   -5.625702   5.154252 C.3        1 UNL1     -0.0615
     27 C         10.380966   2.20395   2.926786 C.ar        1 UNL1     0.1347
     28 C         9.746139   3.280321   2.333094 C.ar        1 UNL1     0.0342
     29 C         8.360189   3.104902   2.134262 C.ar        1 UNL1     0.1435
     30 C         7.691955   1.924884   2.463264 C.ar        1 UNL1     0.0774
     31 O         7.622781   4.018863   1.466497 O.3        1 UNL1     -0.4436
     32 C         6.443873   3.307253   1.060712 C.3        1 UNL1     0.3143
     33 C         6.328698   2.146989   2.028562 C.2        1 UNL1     0.2504
     34 C         10.421145   4.493053   1.755383 C.3        1 UNL1     -0.0327
     35 O         5.322999   4.166193   1.303849 O.2        1 UNL1     -0.4528
     36 C         2.72208   3.246142   -1.303221 C.3        1 UNL1     0.0854
     37 C         2.052236   1.847787   -1.592069 C.3        1 UNL1     0.0236
     38 C         0.449033   1.845525   -1.553602 C.3        1 UNL1     0.1131
     39 C         -0.307381   2.466079   -0.310613 C.3        1 UNL1     0.0200
     40 C         0.217857   2.151854   1.241103 C.3        1 UNL1     0.0661
     41 C         0.564463   0.619826   1.8817 C.3        1 UNL1     0.0091
     42 C         1.797402   0.1071   3.139626 C.3        1 UNL1     0.0661
     43 C         10.492004   -0.160937   3.74081 C.2        1 UNL1     0.2131
     44 O         11.698926   -0.28096   3.632771 O.2        1 UNL1     -0.2851
     45 O         11.732389   2.305996   3.25033 O.3        1 UNL1     -0.5056
     46 O         5.332982   1.554032   2.378999 O.2        1 UNL1     -0.2836
     47 C         2.116574   1.26071   5.523977 C.3        1 UNL1     -0.0566
     48 O         0.835026   -0.713499   3.913943 O.3        1 UNL1     -0.3909
     49 C         0.652596   -0.375365   0.746217 C.3        1 UNL1     -0.0577
     50 O         1.215591   3.074772   1.62901 O.3        1 UNL1     -0.3910
     51 O         1.851289   4.270511   -0.879165 O.3        1 UNL1     -0.3753
     52 C         2.899199   0.666704   -1.015314 C.3        1 UNL1     -0.0564
     53 O         -0.164658   0.62027   -2.165532 O.3        1 UNL1     -0.4608
     54 C         -1.285383   -0.021321   -1.706986 C.2        1 UNL1     0.3042
     55 O         -1.6212   -0.192921   -0.535825 O.2        1 UNL1     -0.2512
     56 C         -2.195647   -0.498773   -2.80251 C.3        1 UNL1     0.0332
     57 C         -0.682092   3.976715   -0.679051 C.3        1 UNL1     -0.0567
     58 C         6.733592   2.750913   -0.352822 C.3        1 UNL1     0.0210
     59 C         2.412802   5.582024   -0.901602 C.3        1 UNL1     0.0372
     60 C         3.851381   3.214298   -0.33429 C.2        1 UNL1     -0.0208
     61 C         4.131943   4.017303   0.692944 C.2        1 UNL1     0.0882
     62 H         3.527375   1.133544   3.918427 H        1 UNL1     0.0365
     63 H         5.266226   0.712052   4.90279 H        1 UNL1     0.0576
     64 H         4.889193   -1.62393   6.877077 H        1 UNL1     0.0615
     65 H         7.384913   0.036987   5.999243 H        1 UNL1     0.0622
     66 H         3.159287   3.546851   -2.265755 H        1 UNL1     0.0645
     67 H         2.24628   1.674046   -2.664786 H        1 UNL1     0.0362
     68 H         0.243974   2.529555   -2.391203 H        1 UNL1     0.0741
     69 H         -1.322085   2.091079   -0.297979 H        1 UNL1     0.0359
     70 H         -0.679497   2.458436   1.811913 H        1 UNL1     0.0600
     71 H         -0.421453   0.365014   2.317588 H        1 UNL1     0.0348
     72 H         1.661922   1.190389   3.27171 H        1 UNL1     0.0602
     73 H         4.55381   2.479464   -0.640657 H        1 UNL1     0.0628
     74 H         3.442728   4.755148   1.105019 H        1 UNL1     0.1022
     75 H         9.228937   -3.472465   7.384316 H        1 UNL1     0.0279
     76 H         9.012496   -2.61989   8.860653 H        1 UNL1     0.0279
     77 H         7.656422   -3.517934   8.067004 H        1 UNL1     0.0279
     78 H         9.589141   -2.84689   5.401426 H        1 UNL1     0.1553
     79 H         7.762823   -3.210982   4.724502 H        1 UNL1     0.1484
     80 H         5.872633   -3.075902   1.430807 H        1 UNL1     0.0317
     81 H         7.580719   -2.682405   1.563198 H        1 UNL1     0.0317
     82 H         7.946373   -4.557729   3.188979 H        1 UNL1     0.0428
     83 H         7.269718   -5.101822   1.669832 H        1 UNL1     0.0428
     84 H         4.550371   -4.643321   4.909904 H        1 UNL1     0.0428
     85 H         6.211613   -4.303205   5.247125 H        1 UNL1     0.0428
     86 H         4.722771   -2.348772   4.813083 H        1 UNL1     0.0317
     87 H         4.331426   -2.870116   3.239106 H        1 UNL1     0.0317
     88 H         4.938948   -6.865049   3.582249 H        1 UNL1     0.0429
     89 H         6.413672   -6.986315   2.619587 H        1 UNL1     0.0429
     90 H         6.017425   -6.911724   5.599563 H        1 UNL1     0.0308
     91 H         8.089239   -8.133211   3.698982 H        1 UNL1     0.0233
     92 H         8.242862   -8.203427   5.472951 H        1 UNL1     0.0233
     93 H         6.900725   -8.991751   4.671817 H        1 UNL1     0.0233
     94 H         8.562029   -5.987578   5.579145 H        1 UNL1     0.0233
     95 H         7.855658   -5.033404   4.265783 H        1 UNL1     0.0233
     96 H         7.134119   -4.97919   5.890724 H        1 UNL1     0.0233
     97 H         10.844533   5.129803   2.526436 H        1 UNL1     0.0280
     98 H         11.255845   4.226401   1.093999 H        1 UNL1     0.0280
     99 H         9.689006   5.084892   1.181977 H        1 UNL1     0.0280
     100 H         12.319393   2.002683   2.580219 H        1 UNL1     0.2922
     101 H         1.292326   1.715394   4.974856 H        1 UNL1     0.0236
     102 H         2.688392   1.997367   6.08731 H        1 UNL1     0.0236
     103 H         1.63043   0.635555   6.291465 H        1 UNL1     0.0236
     104 H         -0.000835   -0.743142   3.408544 H        1 UNL1     0.2098
     105 H         1.642402   -0.468426   0.306403 H        1 UNL1     0.0234
     106 H         0.245253   -1.360824   0.971758 H        1 UNL1     0.0234
     107 H         0.0   0.0   0.0 H        1 UNL1     0.0234
     108 H         0.851575   3.603103   2.365303 H        1 UNL1     0.2098
     109 H         3.903615   0.619718   -1.45877 H        1 UNL1     0.0234
     110 H         2.981472   0.689158   0.076689 H        1 UNL1     0.0234
     111 H         2.434888   -0.305613   -1.227351 H        1 UNL1     0.0234
     112 H         -3.061105   -1.010506   -2.370702 H        1 UNL1     0.0342
     113 H         -2.508458   0.312724   -3.457846 H        1 UNL1     0.0342
     114 H         -1.644461   -1.226605   -3.413753 H        1 UNL1     0.0342
     115 H         -1.759751   4.166146   -0.579272 H        1 UNL1     0.0234
     116 H         -0.160353   4.72307   -0.07673 H        1 UNL1     0.0234
     117 H         -0.519937   4.22335   -1.74245 H        1 UNL1     0.0234
     118 H         6.293258   1.749566   -0.502547 H        1 UNL1     0.0309
     119 H         6.393773   3.415017   -1.153879 H        1 UNL1     0.0309
     120 H         7.802193   2.585774   -0.528686 H        1 UNL1     0.0309
     121 H         1.708639   6.233343   -1.418607 H        1 UNL1     0.0524
     122 H         2.560915   5.991101   0.111688 H        1 UNL1     0.0524
     123 H         3.366681   5.573635   -1.42135 H        1 UNL1     0.0524
@<TRIPOS>BOND
     1     1     2    1
     2     1    42    1
     3     2     3    2
     4     3     4    1
     5     4     5    2
     6     5     7    1
     7     6    75    1
     8     6    76    1
     9     6    77    1
    10     7     9   am
    11     9    10    1
    12    10    11    2
    13    10    43    1
    14    11    14    1
    15    11    15    1
    16    12    13   ar
    17    12    27   ar
    18    12    43    1
    19    13    14    1
    20    13    30   ar
    21    14    17    2
    22    15    16    1
    23    16    17    1
    24    16    18    1
    25    16    22    1
    26    18    19    1
    27    19    20    1
    28    20    21    1
    29    21    22    1
    30    23    24    1
    31    23    88    1
    32    23    89    1
    33    24    25    1
    34    24    26    1
    35    24    90    1
    36    25    91    1
    37    25    92    1
    38    25    93    1
    39    26    94    1
    40    26    95    1
    41    26    96    1
    42    27    28   ar
    43    28    29   ar
    44    29    30   ar
    45    29    31    1
    46    30    33    1
    47    31    32    1
    48    32    33    1
    49    32    35    1
    50    34    97    1
    51    34    98    1
    52    34    99    1
    53    35    61    1
    54    36    37    1
    55    36    60    1
    56    37    38    1
    57    38    39    1
    58    39    40    1
    59    40    41    1
    60    41    42    1
    61    45   100    1
    62    47   101    1
    63    47   102    1
    64    47   103    1
    65    48   104    1
    66    49   105    1
    67    49   106    1
    68    49   107    1
    69    50   108    1
    70    51    59    1
    71    52   109    1
    72    52   110    1
    73    52   111    1
    74    53    54    1
    75    54    55    2
    76    54    56    1
    77    56   112    1
    78    56   113    1
    79    56   114    1
    80    57   115    1
    81    57   116    1
    82    57   117    1
    83    58   118    1
    84    58   119    1
    85    58   120    1
    86    59   121    1
    87    59   122    1
    88    59   123    1
    89    60    61    2
    90     1    47    1
    91     1    62    1
    92     2    63    1
    93     3    64    1
    94     4    65    1
    95     5     6    1
    96     7     8    2
    97     9    78    1
    98    15    79    1
    99    18    80    1
   100    18    81    1
   101    19    82    1
   102    19    83    1
   103    20    23    1
   104    21    84    1
   105    21    85    1
   106    22    86    1
   107    22    87    1
   108    27    45    1
   109    28    34    1
   110    32    58    1
   111    33    46    2
   112    36    51    1
   113    36    66    1
   114    37    52    1
   115    37    67    1
   116    38    53    1
   117    38    68    1
   118    42    48    1
   119    42    72    1
   120    43    44    2
   121    60    73    1
   122    61    74    1
   123    39    69    1
   124    39    57    1
   125    40    70    1
   126    40    50    1
   127    41    71    1
   128    41    49    1
