@<TRIPOS>MOLECULE
*****
 123 128 0 0 0
SMALL
GASTEIGER

@<TRIPOS>ATOM
     1 C         2.231183   3.677935   3.392104 C.3        1 UNL1     0.0009
     2 C         2.991951   5.361771   3.543652 C.2        1 UNL1     -0.0787
     3 C         4.16204   6.204271   3.674548 C.2        1 UNL1     -0.0649
     4 C         4.235221   7.895454   3.644548 C.2        1 UNL1     -0.0542
     5 C         5.076363   9.01782   3.444916 C.2        1 UNL1     0.0115
     6 C         6.553768   9.466152   3.272884 C.3        1 UNL1     -0.0348
     7 C         4.407943   10.445035   3.139528 C.2        1 UNL1     0.2441
     8 O         4.299724   11.323497   3.983992 O.2        1 UNL1     -0.2702
     9 N         4.19271   10.715122   1.776855 N.am        1 UNL1     -0.2772
     10 C         2.964349   10.237959   1.380915 C.2        1 UNL1     0.1049
     11 C         2.911243   8.955996   1.067907 C.2        1 UNL1     0.0801
     12 C         0.544207   10.22335   2.013394 C.ar        1 UNL1     0.0753
     13 C         0.593802   8.801001   1.861496 C.ar        1 UNL1     0.0305
     14 C         1.745331   8.13585   1.256015 C.2        1 UNL1     0.0924
     15 N         3.905288   8.07355   0.868679 N.pl3        1 UNL1     -0.3170
     16 C         3.318642   6.853481   0.381308 C.3        1 UNL1     0.1275
     17 N         1.920124   6.853704   0.948645 N.2        1 UNL1     -0.2557
     18 C         3.1628   6.998658   -1.129433 C.3        1 UNL1     0.0016
     19 C         4.521084   7.325527   -1.729276 C.3        1 UNL1     0.0026
     20 N         5.448771   6.252538   -1.398944 N.3        1 UNL1     -0.3018
     21 C         5.618078   5.995821   0.032769 C.3        1 UNL1     0.0026
     22 C         4.242309   5.665093   0.613952 C.3        1 UNL1     0.0016
     23 C         6.67758   6.313653   -2.165061 C.3        1 UNL1     0.0012
     24 C         6.413476   5.956066   -3.636162 C.3        1 UNL1     -0.0339
     25 C         5.080743   6.544713   -4.127461 C.3        1 UNL1     -0.0615
     26 C         7.5774   6.410495   -4.499617 C.3        1 UNL1     -0.0615
     27 C         -0.603817   10.859855   2.479248 C.ar        1 UNL1     0.1347
     28 C         -1.772622   10.186234   2.786135 C.ar        1 UNL1     0.0342
     29 C         -1.684693   8.782236   2.675588 C.ar        1 UNL1     0.1435
     30 C         -0.529868   8.127991   2.244819 C.ar        1 UNL1     0.0774
     31 O         -2.770041   7.99352   2.833562 O.3        1 UNL1     -0.4436
     32 C         -2.414086   6.755585   2.199775 C.3        1 UNL1     0.3143
     33 C         -0.899021   6.728336   2.206607 C.2        1 UNL1     0.2504
     34 C         -3.111541   10.817807   3.047883 C.3        1 UNL1     -0.0327
     35 O         -2.854279   5.695745   3.057807 O.2        1 UNL1     -0.4528
     36 C         -3.659661   2.773555   0.77302 C.3        1 UNL1     0.0854
     37 C         -2.730936   2.036771   -0.26724 C.3        1 UNL1     0.0236
     38 C         -2.612204   0.450661   -0.06254 C.3        1 UNL1     0.1131
     39 C         -2.252804   -0.132232   1.363411 C.3        1 UNL1     0.0200
     40 C         -1.052366   0.569372   2.284898 C.3        1 UNL1     0.0661
     41 C         0.513016   0.950661   1.75404 C.3        1 UNL1     0.0091
     42 C         1.637815   2.313465   2.246986 C.3        1 UNL1     0.0661
     43 C         1.725547   11.006463   1.573587 C.2        1 UNL1     0.2131
     44 O         1.679257   12.187675   1.281468 O.2        1 UNL1     -0.2851
     45 O         -0.553875   12.242825   2.641542 O.3        1 UNL1     -0.5056
     46 O         -0.162636   5.767304   2.203777 O.2        1 UNL1     -0.2836
     47 C         2.253375   2.950748   4.763485 C.3        1 UNL1     -0.0566
     48 O         2.817412   1.431053   2.417325 O.3        1 UNL1     -0.3909
     49 C         0.548507   0.873634   0.243974 C.3        1 UNL1     -0.0577
     50 O         -1.571602   1.630961   3.060233 O.3        1 UNL1     -0.3910
     51 O         -4.126016   1.988239   1.846902 O.3        1 UNL1     -0.3753
     52 C         -1.504723   2.916047   -0.677394 C.3        1 UNL1     -0.0564
     53 O         -2.025687   -0.265128   -1.244052 O.3        1 UNL1     -0.4608
     54 C         -1.175802   -1.338333   -1.181956 C.2        1 UNL1     0.3042
     55 O         0.043024   -1.336536   -1.350176 O.2        1 UNL1     -0.2512
     56 C         -1.857069   -2.62417   -0.808846 C.3        1 UNL1     0.0332
     57 C         -3.626607   -0.508865   2.090724 C.3        1 UNL1     -0.0567
     58 C         -2.904635   6.856366   0.73665 C.3        1 UNL1     0.0210
     59 C         -5.51143   1.652322   1.78647 C.3        1 UNL1     0.0372
     60 C         -3.082566   4.011098   1.365141 C.2        1 UNL1     -0.0208
     61 C         -3.060699   4.435697   2.629255 C.2        1 UNL1     0.0882
     62 H         1.246038   4.151889   3.305113 H        1 UNL1     0.0365
     63 H         2.097152   5.985805   3.59249 H        1 UNL1     0.0576
     64 H         5.172217   5.790051   3.641807 H        1 UNL1     0.0615
     65 H         3.192625   8.203526   3.761036 H        1 UNL1     0.0622
     66 H         -4.529578   3.098226   0.184904 H        1 UNL1     0.0645
     67 H         -3.292593   2.094209   -1.215819 H        1 UNL1     0.0362
     68 H         -3.6599   0.163406   -0.239571 H        1 UNL1     0.0741
     69 H         -1.898138   -1.14743   1.245115 H        1 UNL1     0.0359
     70 H         -0.8722   -0.243446   3.014232 H        1 UNL1     0.0600
     71 H         1.043544   0.018697   2.031422 H        1 UNL1     0.0348
     72 H         0.897631   2.22378   3.055318 H        1 UNL1     0.0602
     73 H         -2.753893   4.651343   0.584559 H        1 UNL1     0.0628
     74 H         -3.32505   3.821503   3.490719 H        1 UNL1     0.1022
     75 H         7.200034   8.993553   4.05136 H        1 UNL1     0.0279
     76 H         7.045928   9.170805   2.34897 H        1 UNL1     0.0279
     77 H         6.701711   10.534634   3.487733 H        1 UNL1     0.0279
     78 H         4.899808   10.241548   1.21845 H        1 UNL1     0.1553
     79 H         4.85326   8.337453   0.672115 H        1 UNL1     0.1484
     80 H         2.758531   6.064861   -1.538525 H        1 UNL1     0.0317
     81 H         2.442128   7.786179   -1.374575 H        1 UNL1     0.0317
     82 H         4.898268   8.29713   -1.377666 H        1 UNL1     0.0428
     83 H         4.386712   7.426533   -2.806677 H        1 UNL1     0.0428
     84 H         6.257113   5.134638   0.25142 H        1 UNL1     0.0428
     85 H         6.115015   6.832981   0.542213 H        1 UNL1     0.0428
     86 H         4.422706   5.35465   1.626409 H        1 UNL1     0.0317
     87 H         3.842261   4.761075   0.138759 H        1 UNL1     0.0317
     88 H         7.058367   7.3423   -2.118363 H        1 UNL1     0.0429
     89 H         7.449961   5.664837   -1.732348 H        1 UNL1     0.0429
     90 H         6.372358   4.865205   -3.738846 H        1 UNL1     0.0308
     91 H         4.85955   6.228333   -5.151219 H        1 UNL1     0.0233
     92 H         4.259998   6.241585   -3.473167 H        1 UNL1     0.0233
     93 H         5.083151   7.641448   -4.126928 H        1 UNL1     0.0233
     94 H         7.376323   6.186643   -5.552847 H        1 UNL1     0.0233
     95 H         7.713326   7.491457   -4.404711 H        1 UNL1     0.0233
     96 H         8.506758   5.911223   -4.211536 H        1 UNL1     0.0233
     97 H         -3.870841   10.46448   2.356614 H        1 UNL1     0.0280
     98 H         -3.488843   10.586606   4.052595 H        1 UNL1     0.0280
     99 H         -3.030395   11.912048   2.942298 H        1 UNL1     0.0280
     100 H         0.195591   12.554324   3.117872 H        1 UNL1     0.2922
     101 H         3.252534   3.009444   5.194639 H        1 UNL1     0.0236
     102 H         1.890369   1.924876   4.710612 H        1 UNL1     0.0236
     103 H         1.59993   3.442269   5.503492 H        1 UNL1     0.0236
     104 H         2.505104   0.594525   2.814382 H        1 UNL1     0.2098
     105 H         0.077275   1.713865   -0.259776 H        1 UNL1     0.0234
     106 H         1.534888   0.684312   -0.179272 H        1 UNL1     0.0234
     107 H         0.0   0.0   0.0 H        1 UNL1     0.0234
     108 H         -0.811367   2.144311   3.395318 H        1 UNL1     0.2098
     109 H         -1.809358   3.858807   -1.152908 H        1 UNL1     0.0234
     110 H         -0.828921   3.128644   0.157973 H        1 UNL1     0.0234
     111 H         -0.867797   2.405029   -1.41165 H        1 UNL1     0.0234
     112 H         -2.79436   -2.723641   -1.364666 H        1 UNL1     0.0342
     113 H         -1.21482   -3.489071   -0.967921 H        1 UNL1     0.0342
     114 H         -2.102739   -2.584322   0.261305 H        1 UNL1     0.0342
     115 H         -3.510765   -1.371924   2.760722 H        1 UNL1     0.0234
     116 H         -4.056833   0.306013   2.676327 H        1 UNL1     0.0234
     117 H         -4.403413   -0.878502   1.399434 H        1 UNL1     0.0234
     118 H         -3.755558   6.181695   0.537261 H        1 UNL1     0.0309
     119 H         -3.179188   7.875007   0.444768 H        1 UNL1     0.0309
     120 H         -2.147726   6.52802   0.015967 H        1 UNL1     0.0309
     121 H         -5.844509   1.442833   2.802605 H        1 UNL1     0.0524
     122 H         -6.126582   2.481878   1.399865 H        1 UNL1     0.0524
     123 H         -5.659526   0.780055   1.156143 H        1 UNL1     0.0524
@<TRIPOS>BOND
     1     1     2    1
     2     1    42    1
     3     2     3    2
     4     3     4    1
     5     4     5    2
     6     5     7    1
     7     6    75    1
     8     6    76    1
     9     6    77    1
    10     7     9   am
    11     9    10    1
    12    10    11    2
    13    10    43    1
    14    11    14    1
    15    11    15    1
    16    12    13   ar
    17    12    27   ar
    18    12    43    1
    19    13    14    1
    20    13    30   ar
    21    14    17    2
    22    15    16    1
    23    16    17    1
    24    16    18    1
    25    16    22    1
    26    18    19    1
    27    19    20    1
    28    20    21    1
    29    21    22    1
    30    23    24    1
    31    23    88    1
    32    23    89    1
    33    24    25    1
    34    24    26    1
    35    24    90    1
    36    25    91    1
    37    25    92    1
    38    25    93    1
    39    26    94    1
    40    26    95    1
    41    26    96    1
    42    27    28   ar
    43    28    29   ar
    44    29    30   ar
    45    29    31    1
    46    30    33    1
    47    31    32    1
    48    32    33    1
    49    32    35    1
    50    34    97    1
    51    34    98    1
    52    34    99    1
    53    35    61    1
    54    36    37    1
    55    36    60    1
    56    37    38    1
    57    38    39    1
    58    39    40    1
    59    40    41    1
    60    41    42    1
    61    45   100    1
    62    47   101    1
    63    47   102    1
    64    47   103    1
    65    48   104    1
    66    49   105    1
    67    49   106    1
    68    49   107    1
    69    50   108    1
    70    51    59    1
    71    52   109    1
    72    52   110    1
    73    52   111    1
    74    53    54    1
    75    54    55    2
    76    54    56    1
    77    56   112    1
    78    56   113    1
    79    56   114    1
    80    57   115    1
    81    57   116    1
    82    57   117    1
    83    58   118    1
    84    58   119    1
    85    58   120    1
    86    59   121    1
    87    59   122    1
    88    59   123    1
    89    60    61    2
    90     1    47    1
    91     1    62    1
    92     2    63    1
    93     3    64    1
    94     4    65    1
    95     5     6    1
    96     7     8    2
    97     9    78    1
    98    15    79    1
    99    18    80    1
   100    18    81    1
   101    19    82    1
   102    19    83    1
   103    20    23    1
   104    21    84    1
   105    21    85    1
   106    22    86    1
   107    22    87    1
   108    27    45    1
   109    28    34    1
   110    32    58    1
   111    33    46    2
   112    36    51    1
   113    36    66    1
   114    37    52    1
   115    37    67    1
   116    38    53    1
   117    38    68    1
   118    42    48    1
   119    42    72    1
   120    43    44    2
   121    60    73    1
   122    61    74    1
   123    39    69    1
   124    39    57    1
   125    40    70    1
   126    40    50    1
   127    41    71    1
   128    41    49    1
