@<TRIPOS>MOLECULE
*****
 123 128 0 0 0
SMALL
GASTEIGER

@<TRIPOS>ATOM
     1 C         0.938038   3.960816   0.675676 C.3        1 UNL1     0.0009
     2 C         0.087163   5.461908   -0.002389 C.2        1 UNL1     -0.0787
     3 C         -0.008258   6.510032   -0.996561 C.2        1 UNL1     -0.0649
     4 C         -1.228566   7.670484   -1.171363 C.2        1 UNL1     -0.0542
     5 C         -1.841203   8.585933   -2.062266 C.2        1 UNL1     0.0115
     6 C         -1.706652   9.269241   -3.450902 C.3        1 UNL1     -0.0348
     7 C         -3.307586   9.141389   -1.718497 C.2        1 UNL1     0.2441
     8 O         -3.504985   10.255454   -1.253288 O.2        1 UNL1     -0.2702
     9 N         -4.364883   8.367995   -2.228532 N.am        1 UNL1     -0.2772
     10 C         -4.708981   7.377785   -1.337238 C.2        1 UNL1     0.1049
     11 C         -3.975059   6.280428   -1.374489 C.2        1 UNL1     0.0801
     12 C         -5.252731   6.97857   1.071558 C.ar        1 UNL1     0.0753
     13 C         -4.285629   5.924097   1.03402 C.ar        1 UNL1     0.0305
     14 C         -3.711902   5.456553   -0.225858 C.2        1 UNL1     0.0924
     15 N         -3.070475   5.87664   -2.2829 N.pl3        1 UNL1     -0.3170
     16 C         -2.683266   4.531568   -1.949576 C.3        1 UNL1     0.1275
     17 N         -2.888358   4.43815   -0.457284 N.2        1 UNL1     -0.2557
     18 C         -3.711847   3.596108   -2.577779 C.3        1 UNL1     0.0016
     19 C         -3.778632   3.878596   -4.070203 C.3        1 UNL1     0.0026
     20 N         -2.457654   3.667242   -4.645854 N.3        1 UNL1     -0.3018
     21 C         -1.387991   4.479504   -4.062397 C.3        1 UNL1     0.0026
     22 C         -1.335686   4.17645   -2.563959 C.3        1 UNL1     0.0016
     23 C         -2.475116   3.617068   -6.09424 C.3        1 UNL1     0.0012
     24 C         -2.57946   2.163332   -6.5816 C.3        1 UNL1     -0.0339
     25 C         -3.350378   1.288257   -5.57961 C.3        1 UNL1     -0.0615
     26 C         -3.210972   2.120981   -7.962245 C.3        1 UNL1     -0.0615
     27 C         -5.88413   7.336836   2.260296 C.ar        1 UNL1     0.1347
     28 C         -5.660785   6.689434   3.462394 C.ar        1 UNL1     0.0342
     29 C         -4.668881   5.687095   3.411327 C.ar        1 UNL1     0.1435
     30 C         -4.001933   5.341788   2.235247 C.ar        1 UNL1     0.0774
     31 O         -4.415336   4.89175   4.473469 O.3        1 UNL1     -0.4436
     32 C         -3.742061   3.751091   3.91987 C.3        1 UNL1     0.3143
     33 C         -3.14484   4.238243   2.615177 C.2        1 UNL1     0.2504
     34 C         -6.477571   6.848343   4.714475 C.3        1 UNL1     -0.0327
     35 O         -2.646651   3.439496   4.789489 O.2        1 UNL1     -0.4528
     36 C         -2.131294   -0.310848   4.511251 C.3        1 UNL1     0.0854
     37 C         -1.838399   -1.184001   3.230884 C.3        1 UNL1     0.0236
     38 C         -0.522018   -2.095458   3.321057 C.3        1 UNL1     0.1131
     39 C         0.853697   -1.446954   3.755937 C.3        1 UNL1     0.0200
     40 C         1.324416   0.029396   3.138481 C.3        1 UNL1     0.0661
     41 C         1.335863   0.462495   1.498388 C.3        1 UNL1     0.0091
     42 C         1.05166   2.086811   0.694506 C.3        1 UNL1     0.0661
     43 C         -5.627032   7.61845   -0.214021 C.2        1 UNL1     0.2131
     44 O         -6.671297   8.220281   -0.387363 O.2        1 UNL1     -0.2851
     45 O         -6.77895   8.404099   2.219233 O.3        1 UNL1     -0.5056
     46 O         -2.168278   3.823296   2.032083 O.2        1 UNL1     -0.2836
     47 C         2.259925   4.363617   1.383028 C.3        1 UNL1     -0.0566
     48 O         2.237795   1.984939   -0.189702 O.3        1 UNL1     -0.3909
     49 C         0.541813   -0.56107   0.717815 C.3        1 UNL1     -0.0577
     50 O         0.798626   1.087622   3.913999 O.3        1 UNL1     -0.3910
     51 O         -1.122152   -0.303026   5.495631 O.3        1 UNL1     -0.3753
     52 C         -2.248746   -0.444259   1.915838 C.3        1 UNL1     -0.0564
     53 O         -0.454712   -3.159417   2.264749 O.3        1 UNL1     -0.4608
     54 C         0.680347   -3.557026   1.607879 C.2        1 UNL1     0.3042
     55 O         1.562327   -2.838651   1.138957 O.2        1 UNL1     -0.2512
     56 C         0.839072   -5.048849   1.530526 C.3        1 UNL1     0.0332
     57 C         1.023721   -1.685636   5.328291 C.3        1 UNL1     -0.0567
     58 C         -4.837793   2.705524   3.607315 C.3        1 UNL1     0.0210
     59 C         -0.52344   0.970714   5.730143 C.3        1 UNL1     0.0372
     60 C         -2.474933   1.111171   4.237509 C.2        1 UNL1     -0.0208
     61 C         -2.052787   2.231194   4.8258 C.2        1 UNL1     0.0882
     62 H         0.170449   3.902129   1.456748 H        1 UNL1     0.0365
     63 H         -0.677783   5.624071   0.759865 H        1 UNL1     0.0576
     64 H         0.656861   6.53991   -1.862489 H        1 UNL1     0.0615
     65 H         -1.78081   7.611836   -0.22952 H        1 UNL1     0.0622
     66 H         -3.03319   -0.759532   4.950923 H        1 UNL1     0.0645
     67 H         -2.635254   -1.947881   3.239292 H        1 UNL1     0.0362
     68 H         -0.810762   -2.753648   4.154685 H        1 UNL1     0.0741
     69 H         1.659163   -2.100367   3.448227 H        1 UNL1     0.0359
     70 H         2.401261   0.00814   3.393457 H        1 UNL1     0.0600
     71 H         2.373589   0.181642   1.23155 H        1 UNL1     0.0348
     72 H         1.299011   2.306615   1.743229 H        1 UNL1     0.0602
     73 H         -3.26288   1.149512   3.526933 H        1 UNL1     0.0628
     74 H         -1.213199   2.284573   5.519688 H        1 UNL1     0.1022
     75 H         -2.651418   9.157944   -4.035765 H        1 UNL1     0.0279
     76 H         -1.557853   10.346703   -3.449022 H        1 UNL1     0.0279
     77 H         -0.984556   8.761123   -4.106717 H        1 UNL1     0.0279
     78 H         -4.071891   7.914949   -3.091655 H        1 UNL1     0.1553
     79 H         -3.016126   6.242758   -3.215604 H        1 UNL1     0.1484
     80 H         -3.419191   2.557964   -2.379349 H        1 UNL1     0.0317
     81 H         -4.697983   3.736311   -2.122225 H        1 UNL1     0.0317
     82 H         -4.141927   4.89621   -4.276091 H        1 UNL1     0.0428
     83 H         -4.519128   3.202048   -4.497987 H        1 UNL1     0.0428
     84 H         -0.394292   4.244708   -4.456409 H        1 UNL1     0.0428
     85 H         -1.51785   5.547574   -4.285287 H        1 UNL1     0.0428
     86 H         -0.462478   4.682836   -2.196443 H        1 UNL1     0.0317
     87 H         -1.100905   3.117038   -2.403895 H        1 UNL1     0.0317
     88 H         -3.358238   4.167311   -6.444415 H        1 UNL1     0.0429
     89 H         -1.595377   4.115651   -6.521146 H        1 UNL1     0.0429
     90 H         -1.570437   1.751227   -6.700996 H        1 UNL1     0.0308
     91 H         -2.669028   0.764902   -4.902142 H        1 UNL1     0.0233
     92 H         -4.044983   1.893648   -4.992554 H        1 UNL1     0.0233
     93 H         -3.957251   0.521128   -6.07565 H        1 UNL1     0.0233
     94 H         -3.313643   1.083718   -8.298962 H        1 UNL1     0.0233
     95 H         -4.209683   2.565397   -7.930089 H        1 UNL1     0.0233
     96 H         -2.606496   2.663735   -8.694362 H        1 UNL1     0.0233
     97 H         -6.17635   6.149254   5.488925 H        1 UNL1     0.0280
     98 H         -6.37048   7.848523   5.15428 H        1 UNL1     0.0280
     99 H         -7.541573   6.67324   4.485713 H        1 UNL1     0.0280
     100 H         -6.571237   9.064888   1.58218 H        1 UNL1     0.2922
     101 H         3.015255   4.611107   0.637453 H        1 UNL1     0.0236
     102 H         2.613422   3.613894   2.090091 H        1 UNL1     0.0236
     103 H         2.14587   5.282766   1.981652 H        1 UNL1     0.0236
     104 H         2.810662   2.754695   -0.004583 H        1 UNL1     0.2098
     105 H         1.148515   -1.28768   0.183248 H        1 UNL1     0.0234
     106 H         -0.236366   -1.066362   1.289692 H        1 UNL1     0.0234
     107 H         -0.0   0.0   0.0 H        1 UNL1     0.0234
     108 H         0.711172   0.760362   4.82998 H        1 UNL1     0.2098
     109 H         -1.380534   -0.198703   1.288444 H        1 UNL1     0.0234
     110 H         -2.984791   -0.997451   1.322577 H        1 UNL1     0.0234
     111 H         -2.742883   0.513336   2.127467 H        1 UNL1     0.0234
     112 H         1.316226   -5.420126   2.442569 H        1 UNL1     0.0342
     113 H         -0.109687   -5.552984   1.352909 H        1 UNL1     0.0342
     114 H         1.502141   -5.279976   0.68549 H        1 UNL1     0.0342
     115 H         2.079198   -1.664616   5.632784 H        1 UNL1     0.0234
     116 H         0.488892   -0.962693   5.947452 H        1 UNL1     0.0234
     117 H         0.728056   -2.697744   5.654114 H        1 UNL1     0.0234
     118 H         -4.837211   1.874426   4.334146 H        1 UNL1     0.0309
     119 H         -5.842348   3.13755   3.558079 H        1 UNL1     0.0309
     120 H         -4.67689   2.202008   2.64779 H        1 UNL1     0.0309
     121 H         0.440988   0.980074   5.223045 H        1 UNL1     0.0524
     122 H         -1.12406   1.79785   5.316455 H        1 UNL1     0.0524
     123 H         -0.38814   1.131923   6.795882 H        1 UNL1     0.0524
@<TRIPOS>BOND
     1     1     2    1
     2     1    42    1
     3     2     3    2
     4     3     4    1
     5     4     5    2
     6     5     7    1
     7     6    75    1
     8     6    76    1
     9     6    77    1
    10     7     9   am
    11     9    10    1
    12    10    11    2
    13    10    43    1
    14    11    14    1
    15    11    15    1
    16    12    13   ar
    17    12    27   ar
    18    12    43    1
    19    13    14    1
    20    13    30   ar
    21    14    17    2
    22    15    16    1
    23    16    17    1
    24    16    18    1
    25    16    22    1
    26    18    19    1
    27    19    20    1
    28    20    21    1
    29    21    22    1
    30    23    24    1
    31    23    88    1
    32    23    89    1
    33    24    25    1
    34    24    26    1
    35    24    90    1
    36    25    91    1
    37    25    92    1
    38    25    93    1
    39    26    94    1
    40    26    95    1
    41    26    96    1
    42    27    28   ar
    43    28    29   ar
    44    29    30   ar
    45    29    31    1
    46    30    33    1
    47    31    32    1
    48    32    33    1
    49    32    35    1
    50    34    97    1
    51    34    98    1
    52    34    99    1
    53    35    61    1
    54    36    37    1
    55    36    60    1
    56    37    38    1
    57    38    39    1
    58    39    40    1
    59    40    41    1
    60    41    42    1
    61    45   100    1
    62    47   101    1
    63    47   102    1
    64    47   103    1
    65    48   104    1
    66    49   105    1
    67    49   106    1
    68    49   107    1
    69    50   108    1
    70    51    59    1
    71    52   109    1
    72    52   110    1
    73    52   111    1
    74    53    54    1
    75    54    55    2
    76    54    56    1
    77    56   112    1
    78    56   113    1
    79    56   114    1
    80    57   115    1
    81    57   116    1
    82    57   117    1
    83    58   118    1
    84    58   119    1
    85    58   120    1
    86    59   121    1
    87    59   122    1
    88    59   123    1
    89    60    61    2
    90     1    47    1
    91     1    62    1
    92     2    63    1
    93     3    64    1
    94     4    65    1
    95     5     6    1
    96     7     8    2
    97     9    78    1
    98    15    79    1
    99    18    80    1
   100    18    81    1
   101    19    82    1
   102    19    83    1
   103    20    23    1
   104    21    84    1
   105    21    85    1
   106    22    86    1
   107    22    87    1
   108    27    45    1
   109    28    34    1
   110    32    58    1
   111    33    46    2
   112    36    51    1
   113    36    66    1
   114    37    52    1
   115    37    67    1
   116    38    53    1
   117    38    68    1
   118    42    48    1
   119    42    72    1
   120    43    44    2
   121    60    73    1
   122    61    74    1
   123    39    69    1
   124    39    57    1
   125    40    70    1
   126    40    50    1
   127    41    71    1
   128    41    49    1
