@<TRIPOS>MOLECULE
*****
 123 128 0 0 0
SMALL
GASTEIGER

@<TRIPOS>ATOM
     1 C         -0.839879   4.007099   0.525711 C.3        1 UNL1     0.0009
     2 C         -2.494184   4.799251   0.79554 C.2        1 UNL1     -0.0787
     3 C         -3.669383   5.463045   0.271771 C.2        1 UNL1     -0.0649
     4 C         -5.076025   5.90064   1.106172 C.2        1 UNL1     -0.0542
     5 C         -6.444723   6.242195   0.975468 C.2        1 UNL1     0.0115
     6 C         -7.556987   6.606309   -0.046106 C.3        1 UNL1     -0.0348
     7 C         -7.394579   6.152192   2.26646 C.2        1 UNL1     0.2441
     8 O         -7.741243   7.134858   2.907334 O.2        1 UNL1     -0.2702
     9 N         -8.012267   4.903922   2.457337 N.am        1 UNL1     -0.2772
     10 C         -7.2014   4.075194   3.198301 C.2        1 UNL1     0.1049
     11 C         -6.259548   3.433597   2.530852 C.2        1 UNL1     0.0801
     12 C         -5.830098   3.992596   5.288766 C.ar        1 UNL1     0.0753
     13 C         -4.763885   3.491215   4.476106 C.ar        1 UNL1     0.0305
     14 C         -4.987124   3.071884   3.094304 C.2        1 UNL1     0.0924
     15 N         -6.085282   3.289611   1.205927 N.pl3        1 UNL1     -0.3170
     16 C         -5.008791   2.356712   1.003144 C.3        1 UNL1     0.1275
     17 N         -4.149202   2.497956   2.235572 N.2        1 UNL1     -0.2557
     18 C         -5.607964   0.954893   1.063125 C.3        1 UNL1     0.0016
     19 C         -6.724088   0.85867   0.035215 C.3        1 UNL1     0.0026
     20 N         -6.17101   1.136114   -1.283177 N.3        1 UNL1     -0.3018
     21 C         -5.517337   2.439164   -1.42153 C.3        1 UNL1     0.0026
     22 C         -4.396816   2.512317   -0.382793 C.3        1 UNL1     0.0016
     23 C         -7.073946   0.780622   -2.359735 C.3        1 UNL1     0.0012
     24 C         -7.205703   -0.746539   -2.470074 C.3        1 UNL1     -0.0339
     25 C         -7.39142   -1.190929   -3.93024 C.3        1 UNL1     -0.0615
     26 C         -6.005026   -1.42051   -1.829046 C.3        1 UNL1     -0.0615
     27 C         -5.636714   4.276203   6.638687 C.ar        1 UNL1     0.1347
     28 C         -4.437281   4.062137   7.294115 C.ar        1 UNL1     0.0342
     29 C         -3.388508   3.614347   6.463018 C.ar        1 UNL1     0.1435
     30 C         -3.557892   3.360385   5.101389 C.ar        1 UNL1     0.0774
     31 O         -2.189981   3.255134   6.972436 O.3        1 UNL1     -0.4436
     32 C         -1.591923   2.440623   5.952745 C.3        1 UNL1     0.3143
     33 C         -2.273152   2.855283   4.664259 C.2        1 UNL1     0.2504
     34 C         -4.225977   4.103312   8.781984 C.3        1 UNL1     -0.0327
     35 O         -0.218489   2.834456   5.843983 O.2        1 UNL1     -0.4528
     36 C         1.670052   -0.269037   4.74406 C.3        1 UNL1     0.0854
     37 C         1.448569   -1.170466   3.468954 C.3        1 UNL1     0.0236
     38 C         2.745396   -1.366181   2.54609 C.3        1 UNL1     0.1131
     39 C         3.57101   -0.102205   2.073866 C.3        1 UNL1     0.0200
     40 C         2.785485   1.264043   1.527281 C.3        1 UNL1     0.0661
     41 C         1.554425   1.302751   0.360832 C.3        1 UNL1     0.0091
     42 C         0.114413   2.425979   0.187264 C.3        1 UNL1     0.0661
     43 C         -7.17234   4.11599   4.667942 C.2        1 UNL1     0.2131
     44 O         -8.209041   4.144112   5.306061 O.2        1 UNL1     -0.2851
     45 O         -6.713767   4.804131   7.347691 O.3        1 UNL1     -0.5056
     46 O         -1.843473   2.801593   3.533619 O.2        1 UNL1     -0.2836
     47 C         0.238923   5.09013   0.255139 C.3        1 UNL1     -0.0566
     48 O         0.337964   2.674709   -1.257476 O.3        1 UNL1     -0.3909
     49 C         1.045275   -0.104474   0.141795 C.3        1 UNL1     -0.0577
     50 O         2.45744   2.118262   2.604509 O.3        1 UNL1     -0.3910
     51 O         2.913936   0.389543   4.824416 O.3        1 UNL1     -0.3753
     52 C         0.0189   -0.98202   2.864402 C.3        1 UNL1     -0.0564
     53 O         2.614522   -2.48658   1.556188 O.3        1 UNL1     -0.4608
     54 C         2.437166   -2.337583   0.205531 C.2        1 UNL1     0.3042
     55 O         1.386232   -2.441844   -0.425742 O.2        1 UNL1     -0.2512
     56 C         3.690387   -1.949779   -0.526424 C.3        1 UNL1     0.0332
     57 C         4.781246   0.094558   3.100896 C.3        1 UNL1     -0.0567
     58 C         -1.981966   0.97936   6.275401 C.3        1 UNL1     0.0210
     59 C         3.068405   1.242575   5.957704 C.3        1 UNL1     0.0372
     60 C         0.622416   0.762728   4.974449 C.2        1 UNL1     -0.0208
     61 C         0.734691   2.049712   5.305829 C.2        1 UNL1     0.0882
     62 H         -0.794547   3.781245   1.597927 H        1 UNL1     0.0365
     63 H         -2.56187   4.76332   1.88485 H        1 UNL1     0.0576
     64 H         -3.818442   5.600748   -0.801507 H        1 UNL1     0.0615
     65 H         -4.79565   5.803556   2.158525 H        1 UNL1     0.0622
     66 H         1.59784   -0.966089   5.590788 H        1 UNL1     0.0645
     67 H         1.315528   -2.186732   3.878907 H        1 UNL1     0.0362
     68 H         3.399626   -1.892887   3.257487 H        1 UNL1     0.0741
     69 H         4.179683   -0.381641   1.224254 H        1 UNL1     0.0359
     70 H         3.623829   1.774016   1.015259 H        1 UNL1     0.0600
     71 H         2.159504   1.459428   -0.553657 H        1 UNL1     0.0348
     72 H         0.828266   2.947002   0.841683 H        1 UNL1     0.0602
     73 H         -0.33282   0.299469   4.96161 H        1 UNL1     0.0628
     74 H         1.668702   2.612279   5.286338 H        1 UNL1     0.1022
     75 H         -7.172137   6.522677   -1.091061 H        1 UNL1     0.0279
     76 H         -8.429551   5.957204   -0.065171 H        1 UNL1     0.0279
     77 H         -7.841854   7.667819   -0.004294 H        1 UNL1     0.0279
     78 H         -8.165446   4.456685   1.555897 H        1 UNL1     0.1553
     79 H         -6.811481   3.437277   0.529345 H        1 UNL1     0.1484
     80 H         -4.818141   0.219786   0.866749 H        1 UNL1     0.0317
     81 H         -5.99635   0.737857   2.063976 H        1 UNL1     0.0317
     82 H         -7.552845   1.543138   0.26883 H        1 UNL1     0.0428
     83 H         -7.138538   -0.148089   0.096191 H        1 UNL1     0.0428
     84 H         -5.041353   2.589915   -2.395453 H        1 UNL1     0.0428
     85 H         -6.235664   3.26706   -1.344634 H        1 UNL1     0.0428
     86 H         -3.859043   3.416489   -0.60019 H        1 UNL1     0.0317
     87 H         -3.657211   1.725071   -0.57338 H        1 UNL1     0.0317
     88 H         -8.061759   1.200931   -2.129823 H        1 UNL1     0.0429
     89 H         -6.751237   1.220091   -3.312363 H        1 UNL1     0.0429
     90 H         -8.077518   -1.074565   -1.89167 H        1 UNL1     0.0308
     91 H         -6.679571   -0.688958   -4.592356 H        1 UNL1     0.0233
     92 H         -7.267035   -2.272317   -4.023713 H        1 UNL1     0.0233
     93 H         -8.394565   -0.964437   -4.311339 H        1 UNL1     0.0233
     94 H         -5.884787   -2.43452   -2.225483 H        1 UNL1     0.0233
     95 H         -5.094964   -0.858944   -2.057943 H        1 UNL1     0.0233
     96 H         -6.11626   -1.484995   -0.743027 H        1 UNL1     0.0233
     97 H         -3.447423   4.805978   9.063667 H        1 UNL1     0.0280
     98 H         -5.128265   4.423159   9.319414 H        1 UNL1     0.0280
     99 H         -3.934829   3.102672   9.141215 H        1 UNL1     0.0280
     100 H         -7.138679   5.532255   6.929471 H        1 UNL1     0.2922
     101 H         1.226819   4.630154   0.24335 H        1 UNL1     0.0236
     102 H         0.186829   5.929483   0.947784 H        1 UNL1     0.0236
     103 H         0.129268   5.543291   -0.744268 H        1 UNL1     0.0236
     104 H         0.325981   3.642058   -1.395542 H        1 UNL1     0.2098
     105 H         1.452612   -0.597728   -0.737176 H        1 UNL1     0.0234
     106 H         1.122677   -0.75722   1.011195 H        1 UNL1     0.0234
     107 H         -0.0   0.0   0.0 H        1 UNL1     0.0234
     108 H         1.597867   2.531958   2.395326 H        1 UNL1     0.2098
     109 H         -0.733851   -1.597192   3.376888 H        1 UNL1     0.0234
     110 H         -0.308774   0.063072   2.851876 H        1 UNL1     0.0234
     111 H         -0.017636   -1.285114   1.809534 H        1 UNL1     0.0234
     112 H         3.475941   -1.827127   -1.592405 H        1 UNL1     0.0342
     113 H         4.144324   -1.050323   -0.11319 H        1 UNL1     0.0342
     114 H         4.416392   -2.767668   -0.420882 H        1 UNL1     0.0342
     115 H         5.241033   -0.863874   3.37873 H        1 UNL1     0.0234
     116 H         5.576201   0.745077   2.730869 H        1 UNL1     0.0234
     117 H         4.463594   0.47257   4.087884 H        1 UNL1     0.0234
     118 H         -1.94254   0.332666   5.381399 H        1 UNL1     0.0309
     119 H         -1.368498   0.535475   7.06586 H        1 UNL1     0.0309
     120 H         -3.021111   0.8856   6.609308 H        1 UNL1     0.0309
     121 H         3.203483   0.607235   6.832606 H        1 UNL1     0.0524
     122 H         3.957966   1.889196   5.876475 H        1 UNL1     0.0524
     123 H         2.188323   1.867449   6.080516 H        1 UNL1     0.0524
@<TRIPOS>BOND
     1     1     2    1
     2     1    42    1
     3     2     3    2
     4     3     4    1
     5     4     5    2
     6     5     7    1
     7     6    75    1
     8     6    76    1
     9     6    77    1
    10     7     9   am
    11     9    10    1
    12    10    11    2
    13    10    43    1
    14    11    14    1
    15    11    15    1
    16    12    13   ar
    17    12    27   ar
    18    12    43    1
    19    13    14    1
    20    13    30   ar
    21    14    17    2
    22    15    16    1
    23    16    17    1
    24    16    18    1
    25    16    22    1
    26    18    19    1
    27    19    20    1
    28    20    21    1
    29    21    22    1
    30    23    24    1
    31    23    88    1
    32    23    89    1
    33    24    25    1
    34    24    26    1
    35    24    90    1
    36    25    91    1
    37    25    92    1
    38    25    93    1
    39    26    94    1
    40    26    95    1
    41    26    96    1
    42    27    28   ar
    43    28    29   ar
    44    29    30   ar
    45    29    31    1
    46    30    33    1
    47    31    32    1
    48    32    33    1
    49    32    35    1
    50    34    97    1
    51    34    98    1
    52    34    99    1
    53    35    61    1
    54    36    37    1
    55    36    60    1
    56    37    38    1
    57    38    39    1
    58    39    40    1
    59    40    41    1
    60    41    42    1
    61    45   100    1
    62    47   101    1
    63    47   102    1
    64    47   103    1
    65    48   104    1
    66    49   105    1
    67    49   106    1
    68    49   107    1
    69    50   108    1
    70    51    59    1
    71    52   109    1
    72    52   110    1
    73    52   111    1
    74    53    54    1
    75    54    55    2
    76    54    56    1
    77    56   112    1
    78    56   113    1
    79    56   114    1
    80    57   115    1
    81    57   116    1
    82    57   117    1
    83    58   118    1
    84    58   119    1
    85    58   120    1
    86    59   121    1
    87    59   122    1
    88    59   123    1
    89    60    61    2
    90     1    47    1
    91     1    62    1
    92     2    63    1
    93     3    64    1
    94     4    65    1
    95     5     6    1
    96     7     8    2
    97     9    78    1
    98    15    79    1
    99    18    80    1
   100    18    81    1
   101    19    82    1
   102    19    83    1
   103    20    23    1
   104    21    84    1
   105    21    85    1
   106    22    86    1
   107    22    87    1
   108    27    45    1
   109    28    34    1
   110    32    58    1
   111    33    46    2
   112    36    51    1
   113    36    66    1
   114    37    52    1
   115    37    67    1
   116    38    53    1
   117    38    68    1
   118    42    48    1
   119    42    72    1
   120    43    44    2
   121    60    73    1
   122    61    74    1
   123    39    69    1
   124    39    57    1
   125    40    70    1
   126    40    50    1
   127    41    71    1
   128    41    49    1
