@<TRIPOS>MOLECULE
*****
 123 128 0 0 0
SMALL
GASTEIGER

@<TRIPOS>ATOM
     1 C         5.167993   1.744008   0.499873 C.3        1 UNL1     0.0009
     2 C         6.606592   2.549367   -0.347988 C.2        1 UNL1     -0.0787
     3 C         7.889421   2.450475   -1.011777 C.2        1 UNL1     -0.0649
     4 C         8.768955   3.685231   -1.765537 C.2        1 UNL1     -0.0542
     5 C         9.790645   3.977472   -2.70246 C.2        1 UNL1     0.0115
     6 C         10.919708   3.351514   -3.566587 C.3        1 UNL1     -0.0348
     7 C         9.888027   5.460888   -3.30825 C.2        1 UNL1     0.2441
     8 O         10.711941   6.281775   -2.928993 O.2        1 UNL1     -0.2702
     9 N         9.139765   5.668862   -4.480002 N.am        1 UNL1     -0.2772
     10 C         7.856858   6.056383   -4.168076 C.2        1 UNL1     0.1049
     11 C         7.009897   5.085492   -3.877817 C.2        1 UNL1     0.0801
     12 C         6.557494   7.663467   -2.758726 C.ar        1 UNL1     0.0753
     13 C         5.796905   6.53595   -2.312838 C.ar        1 UNL1     0.0305
     14 C         5.913855   5.230408   -2.958543 C.2        1 UNL1     0.0924
     15 N         7.131769   3.756483   -4.037225 N.pl3        1 UNL1     -0.3170
     16 C         5.860979   3.158144   -3.725235 C.3        1 UNL1     0.1275
     17 N         5.223784   4.113481   -2.745931 N.2        1 UNL1     -0.2557
     18 C         5.010124   3.218333   -4.990195 C.3        1 UNL1     0.0016
     19 C         5.766232   2.534106   -6.117903 C.3        1 UNL1     0.0026
     20 N         6.034748   1.155656   -5.732154 N.3        1 UNL1     -0.3018
     21 C         6.796075   0.994219   -4.491715 C.3        1 UNL1     0.0026
     22 C         6.016119   1.684895   -3.371657 C.3        1 UNL1     0.0016
     23 C         6.480352   0.336209   -6.841473 C.3        1 UNL1     0.0012
     24 C         5.325118   0.084333   -7.82318 C.3        1 UNL1     -0.0339
     25 C         5.348841   1.086897   -8.988666 C.3        1 UNL1     -0.0615
     26 C         5.366712   -1.350588   -8.319217 C.3        1 UNL1     -0.0615
     27 C         6.352951   8.931109   -2.218944 C.ar        1 UNL1     0.1347
     28 C         5.392617   9.20101   -1.260318 C.ar        1 UNL1     0.0342
     29 C         4.689499   8.066911   -0.801398 C.ar        1 UNL1     0.1435
     30 C         4.908761   6.784911   -1.306989 C.ar        1 UNL1     0.0774
     31 O         3.64728   8.180933   0.050532 O.3        1 UNL1     -0.4436
     32 C         2.9249   6.948708   -0.093205 C.3        1 UNL1     0.3143
     33 C         3.938272   5.955045   -0.624172 C.2        1 UNL1     0.2504
     34 C         4.946122   10.567282   -0.819813 C.3        1 UNL1     -0.0327
     35 O         2.561915   6.511782   1.222314 O.2        1 UNL1     -0.4528
     36 C         -0.681962   4.582173   0.819874 C.3        1 UNL1     0.0854
     37 C         -0.986833   3.322154   -0.078419 C.3        1 UNL1     0.0236
     38 C         -1.58954   2.061265   0.708123 C.3        1 UNL1     0.1131
     39 C         -0.866176   1.529302   2.01044 C.3        1 UNL1     0.0200
     40 C         0.794842   1.382497   2.054101 C.3        1 UNL1     0.0661
     41 C         1.755427   0.613385   0.886473 C.3        1 UNL1     0.0091
     42 C         3.464147   0.974874   0.325222 C.3        1 UNL1     0.0661
     43 C         7.509098   7.455471   -3.878301 C.2        1 UNL1     0.2131
     44 O         7.910754   8.353516   -4.595884 O.2        1 UNL1     -0.2851
     45 O         7.166694   9.965778   -2.675803 O.3        1 UNL1     -0.5056
     46 O         3.953159   4.751451   -0.493817 O.2        1 UNL1     -0.2836
     47 C         5.56183   1.313703   1.938522 C.3        1 UNL1     -0.0566
     48 O         3.911528   -0.436598   0.407173 O.3        1 UNL1     -0.3909
     49 C         0.922965   0.381877   -0.354859 C.3        1 UNL1     -0.0577
     50 O         1.39535   2.599765   2.448274 O.3        1 UNL1     -0.3910
     51 O         -0.808322   4.39208   2.211035 O.3        1 UNL1     -0.3753
     52 C         0.059264   3.161323   -1.229402 C.3        1 UNL1     -0.0564
     53 O         -2.191543   1.023064   -0.193019 O.3        1 UNL1     -0.4608
     54 C         -2.415345   -0.286882   0.141472 C.2        1 UNL1     0.3042
     55 O         -1.8433   -1.280141   -0.305786 O.2        1 UNL1     -0.2512
     56 C         -3.44641   -0.464607   1.219448 C.3        1 UNL1     0.0332
     57 C         -1.58863   2.198375   3.270827 C.3        1 UNL1     -0.0567
     58 C         1.851548   7.195001   -1.178923 C.3        1 UNL1     0.0210
     59 C         -1.152687   5.564708   2.947392 C.3        1 UNL1     0.0372
     60 C         0.647857   5.210343   0.591519 C.2        1 UNL1     -0.0208
     61 C         1.559789   5.644573   1.462477 C.2        1 UNL1     0.0882
     62 H         4.692679   2.728506   0.586772 H        1 UNL1     0.0365
     63 H         6.340975   3.603328   -0.242706 H        1 UNL1     0.0576
     64 H         8.346686   1.483362   -1.232477 H        1 UNL1     0.0615
     65 H         8.282031   4.600868   -1.41913 H        1 UNL1     0.0622
     66 H         -1.425577   5.329373   0.508786 H        1 UNL1     0.0645
     67 H         -1.851214   3.632391   -0.690919 H        1 UNL1     0.0362
     68 H         -2.536817   2.498726   1.058574 H        1 UNL1     0.0741
     69 H         -1.198756   0.518383   2.204969 H        1 UNL1     0.0359
     70 H         0.904777   0.721765   2.93524 H        1 UNL1     0.0600
     71 H         1.79759   -0.407967   1.313111 H        1 UNL1     0.0348
     72 H         3.357139   1.462805   1.30491 H        1 UNL1     0.0602
     73 H         0.76748   5.407877   -0.444782 H        1 UNL1     0.0628
     74 H         1.540454   5.433538   2.53221 H        1 UNL1     0.1022
     75 H         10.963125   2.246147   -3.413901 H        1 UNL1     0.0279
     76 H         10.807782   3.434776   -4.645294 H        1 UNL1     0.0279
     77 H         11.924513   3.655345   -3.238327 H        1 UNL1     0.0279
     78 H         9.07791   4.799149   -5.005216 H        1 UNL1     0.1553
     79 H         7.797657   3.328213   -4.653757 H        1 UNL1     0.1484
     80 H         4.048179   2.728054   -4.797701 H        1 UNL1     0.0317
     81 H         4.784709   4.255354   -5.261171 H        1 UNL1     0.0317
     82 H         6.697671   3.064796   -6.364281 H        1 UNL1     0.0428
     83 H         5.142479   2.590039   -7.01057 H        1 UNL1     0.0428
     84 H         6.915139   -0.048933   -4.182737 H        1 UNL1     0.0428
     85 H         7.826601   1.361513   -4.593833 H        1 UNL1     0.0428
     86 H         6.530971   1.433819   -2.462879 H        1 UNL1     0.0317
     87 H         5.036126   1.207952   -3.248229 H        1 UNL1     0.0317
     88 H         7.275438   0.878966   -7.369248 H        1 UNL1     0.0429
     89 H         6.91453   -0.608667   -6.490085 H        1 UNL1     0.0429
     90 H         4.3722   0.189832   -7.291173 H        1 UNL1     0.0308
     91 H         6.297715   1.043186   -9.531648 H        1 UNL1     0.0233
     92 H         4.528725   0.89108   -9.683414 H        1 UNL1     0.0233
     93 H         5.222907   2.122768   -8.651107 H        1 UNL1     0.0233
     94 H         4.670463   -1.481767   -9.1546 H        1 UNL1     0.0233
     95 H         6.371397   -1.593469   -8.6764 H        1 UNL1     0.0233
     96 H         5.093633   -2.054398   -7.527986 H        1 UNL1     0.0233
     97 H         4.151621   10.517838   -0.081197 H        1 UNL1     0.0280
     98 H         5.758588   11.136548   -0.349608 H        1 UNL1     0.0280
     99 H         4.574192   11.132403   -1.690101 H        1 UNL1     0.0280
     100 H         6.700714   10.716592   -2.999477 H        1 UNL1     0.2922
     101 H         4.697924   0.880534   2.442196 H        1 UNL1     0.0236
     102 H         6.012334   2.118505   2.518456 H        1 UNL1     0.0236
     103 H         6.317478   0.510466   1.938288 H        1 UNL1     0.0236
     104 H         4.329638   -0.563209   1.281315 H        1 UNL1     0.2098
     105 H         0.712498   1.28096   -0.928588 H        1 UNL1     0.0234
     106 H         1.29234   -0.406701   -1.010324 H        1 UNL1     0.0234
     107 H         0.0   -0.0   0.0 H        1 UNL1     0.0234
     108 H         1.195955   3.259142   1.756009 H        1 UNL1     0.2098
     109 H         1.083435   3.046946   -0.84769 H        1 UNL1     0.0234
     110 H         -0.172765   2.334636   -1.909471 H        1 UNL1     0.0234
     111 H         0.082111   4.044349   -1.881851 H        1 UNL1     0.0234
     112 H         -3.572901   -1.528543   1.441678 H        1 UNL1     0.0342
     113 H         -3.198537   0.095787   2.119649 H        1 UNL1     0.0342
     114 H         -4.405483   -0.082808   0.843187 H        1 UNL1     0.0342
     115 H         -2.653071   1.930727   3.321031 H        1 UNL1     0.0234
     116 H         -1.138742   1.937157   4.230731 H        1 UNL1     0.0234
     117 H         -1.648183   3.298735   3.210818 H        1 UNL1     0.0234
     118 H         0.950214   7.682438   -0.767818 H        1 UNL1     0.0309
     119 H         2.222643   7.783003   -2.024349 H        1 UNL1     0.0309
     120 H         1.462926   6.263482   -1.604776 H        1 UNL1     0.0309
     121 H         -0.349196   6.287882   2.810362 H        1 UNL1     0.0524
     122 H         -2.083602   6.029637   2.582324 H        1 UNL1     0.0524
     123 H         -1.267117   5.326729   4.001131 H        1 UNL1     0.0524
@<TRIPOS>BOND
     1     1     2    1
     2     1    42    1
     3     2     3    2
     4     3     4    1
     5     4     5    2
     6     5     7    1
     7     6    75    1
     8     6    76    1
     9     6    77    1
    10     7     9   am
    11     9    10    1
    12    10    11    2
    13    10    43    1
    14    11    14    1
    15    11    15    1
    16    12    13   ar
    17    12    27   ar
    18    12    43    1
    19    13    14    1
    20    13    30   ar
    21    14    17    2
    22    15    16    1
    23    16    17    1
    24    16    18    1
    25    16    22    1
    26    18    19    1
    27    19    20    1
    28    20    21    1
    29    21    22    1
    30    23    24    1
    31    23    88    1
    32    23    89    1
    33    24    25    1
    34    24    26    1
    35    24    90    1
    36    25    91    1
    37    25    92    1
    38    25    93    1
    39    26    94    1
    40    26    95    1
    41    26    96    1
    42    27    28   ar
    43    28    29   ar
    44    29    30   ar
    45    29    31    1
    46    30    33    1
    47    31    32    1
    48    32    33    1
    49    32    35    1
    50    34    97    1
    51    34    98    1
    52    34    99    1
    53    35    61    1
    54    36    37    1
    55    36    60    1
    56    37    38    1
    57    38    39    1
    58    39    40    1
    59    40    41    1
    60    41    42    1
    61    45   100    1
    62    47   101    1
    63    47   102    1
    64    47   103    1
    65    48   104    1
    66    49   105    1
    67    49   106    1
    68    49   107    1
    69    50   108    1
    70    51    59    1
    71    52   109    1
    72    52   110    1
    73    52   111    1
    74    53    54    1
    75    54    55    2
    76    54    56    1
    77    56   112    1
    78    56   113    1
    79    56   114    1
    80    57   115    1
    81    57   116    1
    82    57   117    1
    83    58   118    1
    84    58   119    1
    85    58   120    1
    86    59   121    1
    87    59   122    1
    88    59   123    1
    89    60    61    2
    90     1    47    1
    91     1    62    1
    92     2    63    1
    93     3    64    1
    94     4    65    1
    95     5     6    1
    96     7     8    2
    97     9    78    1
    98    15    79    1
    99    18    80    1
   100    18    81    1
   101    19    82    1
   102    19    83    1
   103    20    23    1
   104    21    84    1
   105    21    85    1
   106    22    86    1
   107    22    87    1
   108    27    45    1
   109    28    34    1
   110    32    58    1
   111    33    46    2
   112    36    51    1
   113    36    66    1
   114    37    52    1
   115    37    67    1
   116    38    53    1
   117    38    68    1
   118    42    48    1
   119    42    72    1
   120    43    44    2
   121    60    73    1
   122    61    74    1
   123    39    69    1
   124    39    57    1
   125    40    70    1
   126    40    50    1
   127    41    71    1
   128    41    49    1
