@<TRIPOS>MOLECULE
*****
 123 128 0 0 0
SMALL
GASTEIGER

@<TRIPOS>ATOM
     1 C         5.166743   1.759114   0.457768 C.3        1 UNL1     0.0009
     2 C         6.596179   2.568331   -0.401835 C.2        1 UNL1     -0.0787
     3 C         7.87385   2.472897   -1.075998 C.2        1 UNL1     -0.0649
     4 C         8.743816   3.709975   -1.83702 C.2        1 UNL1     -0.0542
     5 C         9.757057   4.004909   -2.782237 C.2        1 UNL1     0.0115
     6 C         10.880802   3.381956   -3.655421 C.3        1 UNL1     -0.0348
     7 C         9.845411   5.488502   -3.388978 C.2        1 UNL1     0.2441
     8 O         10.670098   6.311721   -3.016518 O.2        1 UNL1     -0.2702
     9 N         9.087094   5.694234   -4.554645 N.am        1 UNL1     -0.2772
     10 C         7.805691   6.078246   -4.232368 C.2        1 UNL1     0.1049
     11 C         6.963806   5.105055   -3.935129 C.2        1 UNL1     0.0801
     12 C         6.513358   7.681929   -2.812717 C.ar        1 UNL1     0.0753
     13 C         5.759537   6.552374   -2.360536 C.ar        1 UNL1     0.0305
     14 C         5.874861   5.247068   -3.007009 C.2        1 UNL1     0.0924
     15 N         7.088062   3.776366   -4.095358 N.pl3        1 UNL1     -0.3170
     16 C         5.821507   3.174555   -3.772995 C.3        1 UNL1     0.1275
     17 N         5.189635   4.128265   -2.788669 N.2        1 UNL1     -0.2557
     18 C         4.960254   3.232206   -5.031017 C.3        1 UNL1     0.0016
     19 C         5.70908   2.549913   -6.164739 C.3        1 UNL1     0.0026
     20 N         5.984535   1.172267   -5.781015 N.3        1 UNL1     -0.3018
     21 C         6.756344   1.013118   -4.546774 C.3        1 UNL1     0.0026
     22 C         5.983591   1.701792   -3.420508 C.3        1 UNL1     0.0016
     23 C         6.423392   0.353897   -6.893812 C.3        1 UNL1     0.0012
     24 C         5.262022   0.102322   -7.868331 C.3        1 UNL1     -0.0339
     25 C         5.327774   1.049177   -9.07796 C.3        1 UNL1     -0.0615
     26 C         5.249448   -1.354211   -8.2986 C.3        1 UNL1     -0.0615
     27 C         6.309689   8.949077   -2.271447 C.ar        1 UNL1     0.1347
     28 C         5.35642   9.216456   -1.305094 C.ar        1 UNL1     0.0342
     29 C         4.660193   8.08048   -0.840346 C.ar        1 UNL1     0.1435
     30 C         4.878897   6.79902   -1.347543 C.ar        1 UNL1     0.0774
     31 O         3.624609   8.191739   0.019999 O.3        1 UNL1     -0.4436
     32 C         2.904503   6.957497   -0.117723 C.3        1 UNL1     0.3143
     33 C         3.916282   5.966568   -0.656774 C.2        1 UNL1     0.2504
     34 C         4.909732   10.581549   -0.861147 C.3        1 UNL1     -0.0327
     35 O         2.553415   6.519757   1.200751 O.2        1 UNL1     -0.4528
     36 C         -0.688263   4.581115   0.824878 C.3        1 UNL1     0.0854
     37 C         -0.99692   3.320127   -0.070758 C.3        1 UNL1     0.0236
     38 C         -1.58973   2.057687   0.720801 C.3        1 UNL1     0.1131
     39 C         -0.854353   1.527917   2.017271 C.3        1 UNL1     0.0200
     40 C         0.807364   1.385719   2.047471 C.3        1 UNL1     0.0661
     41 C         1.760571   0.619101   0.872182 C.3        1 UNL1     0.0091
     42 C         3.463674   0.985239   0.297042 C.3        1 UNL1     0.0661
     43 C         7.456419   7.476407   -3.93995 C.2        1 UNL1     0.2131
     44 O         7.84975   8.375458   -4.660878 O.2        1 UNL1     -0.2851
     45 O         7.11683   9.98593   -2.735019 O.3        1 UNL1     -0.5056
     46 O         3.935561   4.763038   -0.526398 O.2        1 UNL1     -0.2836
     47 C         5.57343   1.330108   1.893227 C.3        1 UNL1     -0.0566
     48 O         3.915614   -0.424976   0.375531 O.3        1 UNL1     -0.3909
     49 C         0.91871   0.38511   -0.362327 C.3        1 UNL1     -0.0577
     50 O         1.407677   2.604701   2.436611 O.3        1 UNL1     -0.3910
     51 O         -0.802805   4.390873   2.217042 O.3        1 UNL1     -0.3753
     52 C         0.040246   3.162028   -1.230172 C.3        1 UNL1     -0.0564
     53 O         -2.196147   1.017694   -0.1753 O.3        1 UNL1     -0.4608
     54 C         -2.425678   -0.289606   0.165601 C.2        1 UNL1     0.3042
     55 O         -1.856434   -1.287382   -0.275128 O.2        1 UNL1     -0.2512
     56 C         -3.459796   -0.45771   1.242195 C.3        1 UNL1     0.0332
     57 C         -1.568409   2.195168   3.283397 C.3        1 UNL1     -0.0567
     58 C         1.8217   7.200661   -1.194727 C.3        1 UNL1     0.0210
     59 C         -1.113499   5.569077   2.95945 C.3        1 UNL1     0.0372
     60 C         0.637914   5.212932   0.585665 C.2        1 UNL1     -0.0208
     61 C         1.555676   5.649811   1.449143 C.2        1 UNL1     0.0882
     62 H         4.689425   2.742305   0.548402 H        1 UNL1     0.0365
     63 H         6.328507   3.621568   -0.29453 H        1 UNL1     0.0576
     64 H         8.331987   1.507022   -1.300284 H        1 UNL1     0.0615
     65 H         8.257184   4.62431   -1.486785 H        1 UNL1     0.0622
     66 H         -1.436444   5.326208   0.519743 H        1 UNL1     0.0645
     67 H         -1.867098   3.627882   -0.676263 H        1 UNL1     0.0362
     68 H         -2.535341   2.492574   1.078873 H        1 UNL1     0.0741
     69 H         -1.182543   0.516109   2.214615 H        1 UNL1     0.0359
     70 H         0.926275   0.72542   2.92777 H        1 UNL1     0.0600
     71 H         1.809024   -0.402068   1.298588 H        1 UNL1     0.0348
     72 H         3.363267   1.473014   1.277506 H        1 UNL1     0.0602
     73 H         0.748579   5.410647   -0.451596 H        1 UNL1     0.0628
     74 H         1.545606   5.438877   2.519023 H        1 UNL1     0.1022
     75 H         10.90977   2.273311   -3.524642 H        1 UNL1     0.0279
     76 H         10.773293   3.488046   -4.732572 H        1 UNL1     0.0279
     77 H         11.888341   3.666422   -3.318306 H        1 UNL1     0.0279
     78 H         9.023389   4.824277   -5.079234 H        1 UNL1     0.1553
     79 H         7.750109   3.349852   -4.71722 H        1 UNL1     0.1484
     80 H         4.001264   2.739292   -4.830665 H        1 UNL1     0.0317
     81 H         4.729775   4.268559   -5.300281 H        1 UNL1     0.0317
     82 H         6.637015   3.083144   -6.418732 H        1 UNL1     0.0428
     83 H         5.077953   2.60399   -7.052323 H        1 UNL1     0.0428
     84 H         6.880801   -0.029657   -4.238645 H        1 UNL1     0.0428
     85 H         7.784986   1.383249   -4.657295 H        1 UNL1     0.0428
     86 H         6.506493   1.452274   -2.515907 H        1 UNL1     0.0317
     87 H         5.005957   1.222155   -3.289075 H        1 UNL1     0.0317
     88 H         7.214868   0.897411   -7.426213 H        1 UNL1     0.0429
     89 H         6.860195   -0.591078   -6.545962 H        1 UNL1     0.0429
     90 H         4.312418   0.268545   -7.345994 H        1 UNL1     0.0308
     91 H         6.279518   0.950957   -9.608657 H        1 UNL1     0.0233
     92 H         4.507994   0.847476   -9.771419 H        1 UNL1     0.0233
     93 H         5.231803   2.102864   -8.789226 H        1 UNL1     0.0233
     94 H         4.552142   -1.496039   -9.131357 H        1 UNL1     0.0233
     95 H         6.245348   -1.652052   -8.638361 H        1 UNL1     0.0233
     96 H         4.94564   -2.010118   -7.477956 H        1 UNL1     0.0233
     97 H         4.115051   10.530135   -0.122858 H        1 UNL1     0.0280
     98 H         5.722045   11.149641   -0.389262 H        1 UNL1     0.0280
     99 H         4.537981   11.14891   -1.730054 H        1 UNL1     0.0280
     100 H         6.646189   10.736189   -3.053187 H        1 UNL1     0.2922
     101 H         4.711705   0.90603   2.408245 H        1 UNL1     0.0236
     102 H         6.037469   2.132881   2.465247 H        1 UNL1     0.0236
     103 H         6.322113   0.520399   1.886995 H        1 UNL1     0.0236
     104 H         4.335789   -0.551889   1.248638 H        1 UNL1     0.2098
     105 H         0.700475   1.283632   -0.93403 H        1 UNL1     0.0234
     106 H         1.285353   -0.402026   -1.021051 H        1 UNL1     0.0234
     107 H         0.0   -0.0   0.0 H        1 UNL1     0.0234
     108 H         1.218209   3.258066   1.735908 H        1 UNL1     0.2098
     109 H         1.069214   3.062936   -0.857186 H        1 UNL1     0.0234
     110 H         -0.188275   2.327003   -1.901182 H        1 UNL1     0.0234
     111 H         0.046527   4.039775   -1.890071 H        1 UNL1     0.0234
     112 H         -3.57942   -1.51887   1.48089 H        1 UNL1     0.0342
     113 H         -3.219686   0.118775   2.134303 H        1 UNL1     0.0342
     114 H         -4.420092   -0.089032   0.856096 H        1 UNL1     0.0342
     115 H         -2.639852   1.954891   3.321675 H        1 UNL1     0.0234
     116 H         -1.132723   1.906569   4.24201 H        1 UNL1     0.0234
     117 H         -1.598614   3.297548   3.241125 H        1 UNL1     0.0234
     118 H         0.921765   7.684249   -0.776078 H        1 UNL1     0.0309
     119 H         2.183868   7.790864   -2.042487 H        1 UNL1     0.0309
     120 H         1.433316   6.268047   -1.618394 H        1 UNL1     0.0309
     121 H         -0.277572   6.259098   2.847852 H        1 UNL1     0.0524
     122 H         -2.015945   6.076768   2.580136 H        1 UNL1     0.0524
     123 H         -1.260619   5.324919   4.007704 H        1 UNL1     0.0524
@<TRIPOS>BOND
     1     1     2    1
     2     1    42    1
     3     2     3    2
     4     3     4    1
     5     4     5    2
     6     5     7    1
     7     6    75    1
     8     6    76    1
     9     6    77    1
    10     7     9   am
    11     9    10    1
    12    10    11    2
    13    10    43    1
    14    11    14    1
    15    11    15    1
    16    12    13   ar
    17    12    27   ar
    18    12    43    1
    19    13    14    1
    20    13    30   ar
    21    14    17    2
    22    15    16    1
    23    16    17    1
    24    16    18    1
    25    16    22    1
    26    18    19    1
    27    19    20    1
    28    20    21    1
    29    21    22    1
    30    23    24    1
    31    23    88    1
    32    23    89    1
    33    24    25    1
    34    24    26    1
    35    24    90    1
    36    25    91    1
    37    25    92    1
    38    25    93    1
    39    26    94    1
    40    26    95    1
    41    26    96    1
    42    27    28   ar
    43    28    29   ar
    44    29    30   ar
    45    29    31    1
    46    30    33    1
    47    31    32    1
    48    32    33    1
    49    32    35    1
    50    34    97    1
    51    34    98    1
    52    34    99    1
    53    35    61    1
    54    36    37    1
    55    36    60    1
    56    37    38    1
    57    38    39    1
    58    39    40    1
    59    40    41    1
    60    41    42    1
    61    45   100    1
    62    47   101    1
    63    47   102    1
    64    47   103    1
    65    48   104    1
    66    49   105    1
    67    49   106    1
    68    49   107    1
    69    50   108    1
    70    51    59    1
    71    52   109    1
    72    52   110    1
    73    52   111    1
    74    53    54    1
    75    54    55    2
    76    54    56    1
    77    56   112    1
    78    56   113    1
    79    56   114    1
    80    57   115    1
    81    57   116    1
    82    57   117    1
    83    58   118    1
    84    58   119    1
    85    58   120    1
    86    59   121    1
    87    59   122    1
    88    59   123    1
    89    60    61    2
    90     1    47    1
    91     1    62    1
    92     2    63    1
    93     3    64    1
    94     4    65    1
    95     5     6    1
    96     7     8    2
    97     9    78    1
    98    15    79    1
    99    18    80    1
   100    18    81    1
   101    19    82    1
   102    19    83    1
   103    20    23    1
   104    21    84    1
   105    21    85    1
   106    22    86    1
   107    22    87    1
   108    27    45    1
   109    28    34    1
   110    32    58    1
   111    33    46    2
   112    36    51    1
   113    36    66    1
   114    37    52    1
   115    37    67    1
   116    38    53    1
   117    38    68    1
   118    42    48    1
   119    42    72    1
   120    43    44    2
   121    60    73    1
   122    61    74    1
   123    39    69    1
   124    39    57    1
   125    40    70    1
   126    40    50    1
   127    41    71    1
   128    41    49    1
