@<TRIPOS>MOLECULE
*****
 123 128 0 0 0
SMALL
GASTEIGER

@<TRIPOS>ATOM
     1 C         5.164559   1.756288   0.493245 C.3        1 UNL1     0.0009
     2 C         6.59923   2.567297   -0.355884 C.2        1 UNL1     -0.0787
     3 C         7.881141   2.473298   -1.022153 C.2        1 UNL1     -0.0649
     4 C         8.755651   3.711891   -1.775463 C.2        1 UNL1     -0.0542
     5 C         9.774772   4.008697   -2.713747 C.2        1 UNL1     0.0115
     6 C         10.904113   3.387509   -3.580947 C.3        1 UNL1     -0.0348
     7 C         9.866667   5.49339   -3.317263 C.2        1 UNL1     0.2441
     8 O         10.688835   6.316088   -2.938141 O.2        1 UNL1     -0.2702
     9 N         9.11567   5.701076   -4.487315 N.am        1 UNL1     -0.2772
     10 C         7.832189   6.084282   -4.172431 C.2        1 UNL1     0.1049
     11 C         6.988632   5.110411   -3.882245 C.2        1 UNL1     0.0801
     12 C         6.530634   7.68519   -2.758083 C.ar        1 UNL1     0.0753
     13 C         5.774193   6.554693   -2.312683 C.ar        1 UNL1     0.0305
     14 C         5.893834   5.250568   -2.960752 C.2        1 UNL1     0.0924
     15 N         7.114146   3.782033   -4.044067 N.pl3        1 UNL1     -0.3170
     16 C         5.845699   3.179421   -3.730768 C.3        1 UNL1     0.1275
     17 N         5.207457   4.131254   -2.748737 N.2        1 UNL1     -0.2557
     18 C         4.992378   3.239172   -4.994087 C.3        1 UNL1     0.0016
     19 C         5.748461   2.559044   -6.124287 C.3        1 UNL1     0.0026
     20 N         6.021753   1.180762   -5.741301 N.3        1 UNL1     -0.3018
     21 C         6.7858   1.019539   -4.502509 C.3        1 UNL1     0.0026
     22 C         6.005837   1.706058   -3.379903 C.3        1 UNL1     0.0016
     23 C         6.467767   0.364464   -6.852775 C.3        1 UNL1     0.0012
     24 C         5.312607   0.11443   -7.835041 C.3        1 UNL1     -0.0339
     25 C         5.335627   1.120025   -8.997927 C.3        1 UNL1     -0.0615
     26 C         5.355037   -1.319175   -8.334799 C.3        1 UNL1     -0.0615
     27 C         6.323321   8.951331   -2.215839 C.ar        1 UNL1     0.1347
     28 C         5.363932   9.216809   -1.255035 C.ar        1 UNL1     0.0342
     29 C         4.665005   8.079879   -0.796718 C.ar        1 UNL1     0.1435
     30 C         4.887142   6.799368   -1.30482 C.ar        1 UNL1     0.0774
     31 O         3.624   8.189413   0.057283 O.3        1 UNL1     -0.4436
     32 C         2.905009   6.955292   -0.087182 C.3        1 UNL1     0.3143
     33 C         3.920351   5.965509   -0.62162 C.2        1 UNL1     0.2504
     34 C         4.914197   10.581026   -0.811468 C.3        1 UNL1     -0.0327
     35 O         2.545703   6.515129   1.228268 O.2        1 UNL1     -0.4528
     36 C         -0.693176   4.576588   0.828507 C.3        1 UNL1     0.0854
     37 C         -0.995946   3.317151   -0.071312 C.3        1 UNL1     0.0236
     38 C         -1.593494   2.053191   0.714236 C.3        1 UNL1     0.1131
     39 C         -0.8662   1.521229   2.014363 C.3        1 UNL1     0.0200
     40 C         0.795321   1.379272   2.054778 C.3        1 UNL1     0.0661
     41 C         1.756059   0.61493   0.884148 C.3        1 UNL1     0.0091
     42 C         3.462682   0.9824   0.320406 C.3        1 UNL1     0.0661
     43 C         7.480818   7.481855   -3.879718 C.2        1 UNL1     0.2131
     44 O         7.878514   8.382266   -4.596542 O.2        1 UNL1     -0.2851
     45 O         7.13317   9.989155   -2.67246 O.3        1 UNL1     -0.5056
     46 O         3.939035   4.761751   -0.49328 O.2        1 UNL1     -0.2836
     47 C         5.562275   1.324784   1.930468 C.3        1 UNL1     -0.0566
     48 O         3.914385   -0.427873   0.399217 O.3        1 UNL1     -0.3909
     49 C         0.922037   0.383002   -0.356058 C.3        1 UNL1     -0.0577
     50 O         1.39294   2.597662   2.449874 O.3        1 UNL1     -0.3910
     51 O         -0.816451   4.383832   2.219578 O.3        1 UNL1     -0.3753
     52 C         0.048534   3.161313   -1.224449 C.3        1 UNL1     -0.0564
     53 O         -2.194056   1.014696   -0.187529 O.3        1 UNL1     -0.4608
     54 C         -2.425484   -0.293253   0.149578 C.2        1 UNL1     0.3042
     55 O         -1.854561   -1.290264   -0.29071 O.2        1 UNL1     -0.2512
     56 C         -3.464454   -0.463324   1.22118 C.3        1 UNL1     0.0332
     57 C         -1.588344   2.186085   3.277157 C.3        1 UNL1     -0.0567
     58 C         1.828967   7.200192   -1.17055 C.3        1 UNL1     0.0210
     59 C         -1.162948   5.554222   2.958493 C.3        1 UNL1     0.0372
     60 C         0.634362   5.209067   0.598786 C.2        1 UNL1     -0.0208
     61 C         1.546583   5.644563   1.46881 C.2        1 UNL1     0.0882
     62 H         4.686493   2.73923   0.582629 H        1 UNL1     0.0365
     63 H         6.330688   3.620292   -0.248382 H        1 UNL1     0.0576
     64 H         8.340864   1.507907   -1.245277 H        1 UNL1     0.0615
     65 H         8.266649   4.62551   -1.426665 H        1 UNL1     0.0622
     66 H         -1.439561   5.322093   0.519998 H        1 UNL1     0.0645
     67 H         -1.86235   3.625835   -0.681736 H        1 UNL1     0.0362
     68 H         -2.541424   2.487267   1.06712 H        1 UNL1     0.0741
     69 H         -1.195435   0.509011   2.207824 H        1 UNL1     0.0359
     70 H         0.908807   0.717419   2.934625 H        1 UNL1     0.0600
     71 H         1.802017   -0.406993   1.309022 H        1 UNL1     0.0348
     72 H         3.356007   1.4684   1.30109 H        1 UNL1     0.0602
     73 H         0.751522   5.40866   -0.437401 H        1 UNL1     0.0628
     74 H         1.529812   5.43171   2.538226 H        1 UNL1     0.1022
     75 H         10.951076   2.282025   -3.430164 H        1 UNL1     0.0279
     76 H         10.789985   3.472214   -4.659311 H        1 UNL1     0.0279
     77 H         11.908608   3.693772   -3.254002 H        1 UNL1     0.0279
     78 H         9.055436   4.832049   -5.013852 H        1 UNL1     0.1553
     79 H         7.780179   3.356752   -4.662507 H        1 UNL1     0.1484
     80 H         4.032238   2.74573   -4.800663 H        1 UNL1     0.0317
     81 H         4.763405   4.275965   -5.262942 H        1 UNL1     0.0317
     82 H         6.677878   3.092894   -6.371473 H        1 UNL1     0.0428
     83 H         5.122929   2.614598   -7.015732 H        1 UNL1     0.0428
     84 H         6.90851   -0.023764   -4.195469 H        1 UNL1     0.0428
     85 H         7.815049   1.39005   -4.605884 H        1 UNL1     0.0428
     86 H         6.523076   1.455012   -2.472474 H        1 UNL1     0.0317
     87 H         5.027484   1.226012   -3.255492 H        1 UNL1     0.0317
     88 H         7.262479   0.909072   -7.379204 H        1 UNL1     0.0429
     89 H         6.902548   -0.581054   -6.503871 H        1 UNL1     0.0429
     90 H         4.359668   0.217969   -7.302688 H        1 UNL1     0.0308
     91 H         6.285667   1.080478   -9.539188 H        1 UNL1     0.0233
     92 H         4.517425   0.923577   -9.694751 H        1 UNL1     0.0233
     93 H         5.206006   2.15466   -8.657978 H        1 UNL1     0.0233
     94 H         4.658801   -1.448613   -9.170465 H        1 UNL1     0.0233
     95 H         6.35984   -1.560517   -8.692689 H        1 UNL1     0.0233
     96 H         5.08245   -2.0252   -7.545374 H        1 UNL1     0.0233
     97 H         4.121186   10.528014   -0.0715 H        1 UNL1     0.0280
     98 H         5.725826   11.151921   -0.341794 H        1 UNL1     0.0280
     99 H         4.53902   11.146475   -1.680148 H        1 UNL1     0.0280
     100 H         6.664391   10.739378   -2.993449 H        1 UNL1     0.2922
     101 H         4.700568   0.888231   2.434987 H        1 UNL1     0.0236
     102 H         6.011447   2.129961   2.510914 H        1 UNL1     0.0236
     103 H         6.320293   0.523789   1.927542 H        1 UNL1     0.0236
     104 H         4.334451   -0.554684   1.272391 H        1 UNL1     0.2098
     105 H         0.70977   1.282076   -0.929137 H        1 UNL1     0.0234
     106 H         1.291301   -0.404931   -1.012361 H        1 UNL1     0.0234
     107 H         0.0   -0.0   0.0 H        1 UNL1     0.0234
     108 H         1.193333   3.256679   1.757326 H        1 UNL1     0.2098
     109 H         1.073729   3.049341   -0.844777 H        1 UNL1     0.0234
     110 H         -0.182281   2.335063   -1.905461 H        1 UNL1     0.0234
     111 H         0.067585   4.045475   -1.875479 H        1 UNL1     0.0234
     112 H         -3.594564   -1.525829   1.448117 H        1 UNL1     0.0342
     113 H         -3.221841   0.101346   2.120141 H        1 UNL1     0.0342
     114 H         -4.420115   -0.0817   0.836161 H        1 UNL1     0.0342
     115 H         -2.657406   1.935371   3.315074 H        1 UNL1     0.0234
     116 H         -1.150988   1.905369   4.237348 H        1 UNL1     0.0234
     117 H         -1.629391   3.287948   3.230743 H        1 UNL1     0.0234
     118 H         0.926941   7.684281   -0.757012 H        1 UNL1     0.0309
     119 H         2.196787   7.790681   -2.015674 H        1 UNL1     0.0309
     120 H         1.44233   6.268228   -1.597237 H        1 UNL1     0.0309
     121 H         -0.360355   6.278824   2.823762 H        1 UNL1     0.0524
     122 H         -2.094243   6.018745   2.593875 H        1 UNL1     0.0524
     123 H         -1.277796   5.313567   4.011578 H        1 UNL1     0.0524
@<TRIPOS>BOND
     1     1     2    1
     2     1    42    1
     3     2     3    2
     4     3     4    1
     5     4     5    2
     6     5     7    1
     7     6    75    1
     8     6    76    1
     9     6    77    1
    10     7     9   am
    11     9    10    1
    12    10    11    2
    13    10    43    1
    14    11    14    1
    15    11    15    1
    16    12    13   ar
    17    12    27   ar
    18    12    43    1
    19    13    14    1
    20    13    30   ar
    21    14    17    2
    22    15    16    1
    23    16    17    1
    24    16    18    1
    25    16    22    1
    26    18    19    1
    27    19    20    1
    28    20    21    1
    29    21    22    1
    30    23    24    1
    31    23    88    1
    32    23    89    1
    33    24    25    1
    34    24    26    1
    35    24    90    1
    36    25    91    1
    37    25    92    1
    38    25    93    1
    39    26    94    1
    40    26    95    1
    41    26    96    1
    42    27    28   ar
    43    28    29   ar
    44    29    30   ar
    45    29    31    1
    46    30    33    1
    47    31    32    1
    48    32    33    1
    49    32    35    1
    50    34    97    1
    51    34    98    1
    52    34    99    1
    53    35    61    1
    54    36    37    1
    55    36    60    1
    56    37    38    1
    57    38    39    1
    58    39    40    1
    59    40    41    1
    60    41    42    1
    61    45   100    1
    62    47   101    1
    63    47   102    1
    64    47   103    1
    65    48   104    1
    66    49   105    1
    67    49   106    1
    68    49   107    1
    69    50   108    1
    70    51    59    1
    71    52   109    1
    72    52   110    1
    73    52   111    1
    74    53    54    1
    75    54    55    2
    76    54    56    1
    77    56   112    1
    78    56   113    1
    79    56   114    1
    80    57   115    1
    81    57   116    1
    82    57   117    1
    83    58   118    1
    84    58   119    1
    85    58   120    1
    86    59   121    1
    87    59   122    1
    88    59   123    1
    89    60    61    2
    90     1    47    1
    91     1    62    1
    92     2    63    1
    93     3    64    1
    94     4    65    1
    95     5     6    1
    96     7     8    2
    97     9    78    1
    98    15    79    1
    99    18    80    1
   100    18    81    1
   101    19    82    1
   102    19    83    1
   103    20    23    1
   104    21    84    1
   105    21    85    1
   106    22    86    1
   107    22    87    1
   108    27    45    1
   109    28    34    1
   110    32    58    1
   111    33    46    2
   112    36    51    1
   113    36    66    1
   114    37    52    1
   115    37    67    1
   116    38    53    1
   117    38    68    1
   118    42    48    1
   119    42    72    1
   120    43    44    2
   121    60    73    1
   122    61    74    1
   123    39    69    1
   124    39    57    1
   125    40    70    1
   126    40    50    1
   127    41    71    1
   128    41    49    1
