@<TRIPOS>MOLECULE
*****
 123 128 0 0 0
SMALL
GASTEIGER

@<TRIPOS>ATOM
     1 C         5.037032   2.055075   0.645548 C.3        1 UNL1     0.0009
     2 C         6.42286   2.997152   -0.147551 C.2        1 UNL1     -0.0787
     3 C         7.718219   3.019417   -0.793768 C.2        1 UNL1     -0.0649
     4 C         8.513369   4.3444   -1.485515 C.2        1 UNL1     -0.0542
     5 C         9.522861   4.747861   -2.393933 C.2        1 UNL1     0.0115
     6 C         10.706793   4.241415   -3.26292 C.3        1 UNL1     -0.0348
     7 C         9.517619   6.257054   -2.941014 C.2        1 UNL1     0.2441
     8 O         10.273022   7.121029   -2.517413 O.2        1 UNL1     -0.2702
     9 N         8.771627   6.455035   -4.11594 N.am        1 UNL1     -0.2772
     10 C         7.459393   6.734196   -3.81027 C.2        1 UNL1     0.1049
     11 C         6.683257   5.692755   -3.571029 C.2        1 UNL1     0.0801
     12 C         6.025358   8.184347   -2.361844 C.ar        1 UNL1     0.0753
     13 C         5.344931   6.987099   -1.971686 C.ar        1 UNL1     0.0305
     14 C         5.567322   5.72012   -2.664764 C.2        1 UNL1     0.0924
     15 N         6.905824   4.383663   -3.779045 N.pl3        1 UNL1     -0.3170
     16 C         5.679053   3.681312   -3.510737 C.3        1 UNL1     0.1275
     17 N         4.95953   4.547791   -2.506136 N.2        1 UNL1     -0.2557
     18 C         4.843002   3.728107   -4.786093 C.3        1 UNL1     0.0016
     19 C         5.662895   3.146397   -5.926698 C.3        1 UNL1     0.0026
     20 N         6.028106   1.777466   -5.589538 N.3        1 UNL1     -0.3018
     21 C         6.782747   1.624128   -4.343996 C.3        1 UNL1     0.0026
     22 C         5.938697   2.210803   -3.211174 C.3        1 UNL1     0.0016
     23 C         6.548203   1.037353   -6.721958 C.3        1 UNL1     0.0012
     24 C         5.428973   0.743371   -7.733222 C.3        1 UNL1     -0.0339
     25 C         5.771918   1.293653   -9.127365 C.3        1 UNL1     -0.0615
     26 C         5.143754   -0.747818   -7.775472 C.3        1 UNL1     -0.0615
     27 C         5.719857   9.411248   -1.777461 C.ar        1 UNL1     0.1347
     28 C         4.729415   9.571638   -0.824913 C.ar        1 UNL1     0.0342
     29 C         4.106611   8.371564   -0.421054 C.ar        1 UNL1     0.1435
     30 C         4.427402   7.130101   -0.971584 C.ar        1 UNL1     0.0774
     31 O         3.047542   8.374763   0.417617 O.3        1 UNL1     -0.4436
     32 C         2.420862   7.099143   0.215279 C.3        1 UNL1     0.3143
     33 C         3.512365   6.204656   -0.336741 C.2        1 UNL1     0.2504
     34 C         4.176637   10.88285   -0.339876 C.3        1 UNL1     -0.0327
     35 O         2.073916   6.585293   1.507114 O.2        1 UNL1     -0.4528
     36 C         -1.011689   4.438652   0.978846 C.3        1 UNL1     0.0854
     37 C         -1.209936   3.195797   0.028303 C.3        1 UNL1     0.0236
     38 C         -1.727542   1.863932   0.756289 C.3        1 UNL1     0.1131
     39 C         -0.984001   1.336133   2.0489 C.3        1 UNL1     0.0200
     40 C         0.682607   1.310812   2.11382 C.3        1 UNL1     0.0661
     41 C         1.713241   0.661184   0.933402 C.3        1 UNL1     0.0091
     42 C         3.397639   1.169646   0.414102 C.3        1 UNL1     0.0661
     43 C         7.004632   8.091319   -3.472983 C.2        1 UNL1     0.2131
     44 O         7.347852   9.044055   -4.149172 O.2        1 UNL1     -0.2851
     45 O         6.460343   10.52033   -2.181263 O.3        1 UNL1     -0.5056
     46 O         3.615061   5.001261   -0.25219 O.2        1 UNL1     -0.2836
     47 C         5.442608   1.598886   2.072917 C.3        1 UNL1     -0.0566
     48 O         3.947707   -0.207052   0.449361 O.3        1 UNL1     -0.3909
     49 C         0.916928   0.417735   -0.32918 C.3        1 UNL1     -0.0577
     50 O         1.185542   2.552693   2.563834 O.3        1 UNL1     -0.3910
     51 O         -1.142068   4.185277   2.35951 O.3        1 UNL1     -0.3753
     52 C         -0.139532   3.157981   -1.110887 C.3        1 UNL1     -0.0564
     53 O         -2.238544   0.820283   -0.193448 O.3        1 UNL1     -0.4608
     54 C         -2.349142   -0.517938   0.08016 C.2        1 UNL1     0.3042
     55 O         -1.600217   -1.420626   -0.291462 O.2        1 UNL1     -0.2512
     56 C         -3.500711   -0.853709   0.984516 C.3        1 UNL1     0.0332
     57 C         -1.770975   1.900019   3.322037 C.3        1 UNL1     -0.0567
     58 C         1.346712   7.30792   -0.87749 C.3        1 UNL1     0.0210
     59 C         -1.552225   5.307911   3.138824 C.3        1 UNL1     0.0372
     60 C         0.270608   5.171806   0.796197 C.2        1 UNL1     -0.0208
     61 C         1.136008   5.637677   1.697747 C.2        1 UNL1     0.0882
     62 H         4.488643   2.997604   0.762246 H        1 UNL1     0.0365
     63 H         6.078153   4.023668   -0.00644 H        1 UNL1     0.0576
     64 H         8.249099   2.098131   -1.043781 H        1 UNL1     0.0615
     65 H         7.955072   5.207264   -1.112348 H        1 UNL1     0.0622
     66 H         -1.804647   5.140523   0.684498 H        1 UNL1     0.0645
     67 H         -2.086776   3.46515   -0.58583 H        1 UNL1     0.0362
     68 H         -2.709337   2.216136   1.107792 H        1 UNL1     0.0741
     69 H         -1.242975   0.296555   2.199296 H        1 UNL1     0.0359
     70 H         0.829671   0.625922   2.970767 H        1 UNL1     0.0600
     71 H         1.825623   -0.370224   1.321379 H        1 UNL1     0.0348
     72 H         3.24157   1.609502   1.409835 H        1 UNL1     0.0602
     73 H         0.388989   5.418167   -0.229737 H        1 UNL1     0.0628
     74 H         1.118188   5.383957   2.758193 H        1 UNL1     0.1022
     75 H         10.780739   3.128224   -3.214214 H        1 UNL1     0.0279
     76 H         10.636653   4.424947   -4.332717 H        1 UNL1     0.0279
     77 H         11.686538   4.541466   -2.863206 H        1 UNL1     0.0279
     78 H         8.781679   5.60442   -4.674895 H        1 UNL1     0.1553
     79 H         7.609895   4.030281   -4.400606 H        1 UNL1     0.1484
     80 H         3.91774   3.16094   -4.628053 H        1 UNL1     0.0317
     81 H         4.544654   4.755483   -5.02091 H        1 UNL1     0.0317
     82 H         6.555448   3.753696   -6.137527 H        1 UNL1     0.0428
     83 H         5.048655   3.191109   -6.826564 H        1 UNL1     0.0428
     84 H         6.974999   0.581295   -4.073165 H        1 UNL1     0.0428
     85 H         7.784344   2.070259   -4.41532 H        1 UNL1     0.0428
     86 H         6.458658   1.962957   -2.304421 H        1 UNL1     0.0317
     87 H         4.995365   1.658303   -3.121924 H        1 UNL1     0.0317
     88 H         7.3099   1.656373   -7.213817 H        1 UNL1     0.0429
     89 H         7.044068   0.112516   -6.400138 H        1 UNL1     0.0429
     90 H         4.501234   1.216155   -7.389725 H        1 UNL1     0.0308
     91 H         6.798463   1.044069   -9.411998 H        1 UNL1     0.0233
     92 H         5.084968   0.897353   -9.8788 H        1 UNL1     0.0233
     93 H         5.684183   2.38568   -9.178496 H        1 UNL1     0.0233
     94 H         4.659836   -1.013147   -8.721654 H        1 UNL1     0.0233
     95 H         6.079642   -1.309338   -7.706394 H        1 UNL1     0.0233
     96 H         4.488134   -1.052107   -6.954777 H        1 UNL1     0.0233
     97 H         3.324631   10.746898   0.319543 H        1 UNL1     0.0280
     98 H         4.914842   11.455139   0.237007 H        1 UNL1     0.0280
     99 H         3.853047   11.48853   -1.202162 H        1 UNL1     0.0280
     100 H         5.94429   11.272518   -2.412616 H        1 UNL1     0.2922
     101 H         4.549108   1.372064   2.654178 H        1 UNL1     0.0236
     102 H         6.092003   2.310319   2.581968 H        1 UNL1     0.0236
     103 H         6.014556   0.656077   2.059491 H        1 UNL1     0.0236
     104 H         4.275974   -0.370407   1.35519 H        1 UNL1     0.2098
     105 H         0.688445   1.316568   -0.896371 H        1 UNL1     0.0234
     106 H         1.327617   -0.349131   -0.985822 H        1 UNL1     0.0234
     107 H         0.0   -0.0   0.0 H        1 UNL1     0.0234
     108 H         1.004857   3.209587   1.864113 H        1 UNL1     0.2098
     109 H         0.885673   3.117134   -0.71719 H        1 UNL1     0.0234
     110 H         -0.293205   2.336371   -1.81876 H        1 UNL1     0.0234
     111 H         -0.182057   4.059649   -1.736293 H        1 UNL1     0.0234
     112 H         -3.51947   -1.93034   1.179091 H        1 UNL1     0.0342
     113 H         -3.468833   -0.288995   1.915068 H        1 UNL1     0.0342
     114 H         -4.432566   -0.588867   0.466183 H        1 UNL1     0.0342
     115 H         -2.844762   1.672707   3.272039 H        1 UNL1     0.0234
     116 H         -1.399481   1.522291   4.27669 H        1 UNL1     0.0234
     117 H         -1.788743   3.002181   3.375553 H        1 UNL1     0.0234
     118 H         0.325173   7.315304   -0.458672 H        1 UNL1     0.0309
     119 H         1.500579   8.220268   -1.462425 H        1 UNL1     0.0309
     120 H         1.317285   6.485483   -1.600565 H        1 UNL1     0.0309
     121 H         -1.185571   5.156392   4.153695 H        1 UNL1     0.0524
     122 H         -1.122781   6.253656   2.768442 H        1 UNL1     0.0524
     123 H         -2.635507   5.389104   3.139861 H        1 UNL1     0.0524
@<TRIPOS>BOND
     1     1     2    1
     2     1    42    1
     3     2     3    2
     4     3     4    1
     5     4     5    2
     6     5     7    1
     7     6    75    1
     8     6    76    1
     9     6    77    1
    10     7     9   am
    11     9    10    1
    12    10    11    2
    13    10    43    1
    14    11    14    1
    15    11    15    1
    16    12    13   ar
    17    12    27   ar
    18    12    43    1
    19    13    14    1
    20    13    30   ar
    21    14    17    2
    22    15    16    1
    23    16    17    1
    24    16    18    1
    25    16    22    1
    26    18    19    1
    27    19    20    1
    28    20    21    1
    29    21    22    1
    30    23    24    1
    31    23    88    1
    32    23    89    1
    33    24    25    1
    34    24    26    1
    35    24    90    1
    36    25    91    1
    37    25    92    1
    38    25    93    1
    39    26    94    1
    40    26    95    1
    41    26    96    1
    42    27    28   ar
    43    28    29   ar
    44    29    30   ar
    45    29    31    1
    46    30    33    1
    47    31    32    1
    48    32    33    1
    49    32    35    1
    50    34    97    1
    51    34    98    1
    52    34    99    1
    53    35    61    1
    54    36    37    1
    55    36    60    1
    56    37    38    1
    57    38    39    1
    58    39    40    1
    59    40    41    1
    60    41    42    1
    61    45   100    1
    62    47   101    1
    63    47   102    1
    64    47   103    1
    65    48   104    1
    66    49   105    1
    67    49   106    1
    68    49   107    1
    69    50   108    1
    70    51    59    1
    71    52   109    1
    72    52   110    1
    73    52   111    1
    74    53    54    1
    75    54    55    2
    76    54    56    1
    77    56   112    1
    78    56   113    1
    79    56   114    1
    80    57   115    1
    81    57   116    1
    82    57   117    1
    83    58   118    1
    84    58   119    1
    85    58   120    1
    86    59   121    1
    87    59   122    1
    88    59   123    1
    89    60    61    2
    90     1    47    1
    91     1    62    1
    92     2    63    1
    93     3    64    1
    94     4    65    1
    95     5     6    1
    96     7     8    2
    97     9    78    1
    98    15    79    1
    99    18    80    1
   100    18    81    1
   101    19    82    1
   102    19    83    1
   103    20    23    1
   104    21    84    1
   105    21    85    1
   106    22    86    1
   107    22    87    1
   108    27    45    1
   109    28    34    1
   110    32    58    1
   111    33    46    2
   112    36    51    1
   113    36    66    1
   114    37    52    1
   115    37    67    1
   116    38    53    1
   117    38    68    1
   118    42    48    1
   119    42    72    1
   120    43    44    2
   121    60    73    1
   122    61    74    1
   123    39    69    1
   124    39    57    1
   125    40    70    1
   126    40    50    1
   127    41    71    1
   128    41    49    1
