@<TRIPOS>MOLECULE
*****
 123 128 0 0 0
SMALL
GASTEIGER

@<TRIPOS>ATOM
     1 C         5.183183   1.721659   0.412036 C.3        1 UNL1     0.0009
     2 C         6.612129   2.516788   -0.461418 C.2        1 UNL1     -0.0787
     3 C         7.8839   2.409144   -1.144834 C.2        1 UNL1     -0.0649
     4 C         8.757382   3.636725   -1.917124 C.2        1 UNL1     -0.0542
     5 C         9.76563   3.920416   -2.871081 C.2        1 UNL1     0.0115
     6 C         10.877998   3.285688   -3.750331 C.3        1 UNL1     -0.0348
     7 C         9.860573   5.401001   -3.484141 C.2        1 UNL1     0.2441
     8 O         10.694242   6.219351   -3.121066 O.2        1 UNL1     -0.2702
     9 N         9.095021   5.608077   -4.644831 N.am        1 UNL1     -0.2772
     10 C         7.819028   6.00299   -4.314364 C.2        1 UNL1     0.1049
     11 C         6.972103   5.037327   -4.007061 C.2        1 UNL1     0.0801
     12 C         6.549617   7.621747   -2.891145 C.ar        1 UNL1     0.0753
     13 C         5.790746   6.499643   -2.428971 C.ar        1 UNL1     0.0305
     14 C         5.891321   5.191075   -3.0713 C.2        1 UNL1     0.0924
     15 N         7.085117   3.707141   -4.163141 N.pl3        1 UNL1     -0.3170
     16 C         5.816538   3.116155   -3.82893 C.3        1 UNL1     0.1275
     17 N         5.19935   4.078322   -2.843518 N.2        1 UNL1     -0.2557
     18 C         4.946239   3.175585   -5.080629 C.3        1 UNL1     0.0016
     19 C         5.681288   2.483376   -6.217352 C.3        1 UNL1     0.0026
     20 N         5.949244   1.10514   -5.830451 N.3        1 UNL1     -0.3018
     21 C         6.729158   0.944802   -4.60147 C.3        1 UNL1     0.0026
     22 C         5.970175   1.643545   -3.472046 C.3        1 UNL1     0.0016
     23 C         6.373475   0.279284   -6.943391 C.3        1 UNL1     0.0012
     24 C         5.202892   0.03284   -7.908149 C.3        1 UNL1     -0.0339
     25 C         5.285756   0.950627   -9.138945 C.3        1 UNL1     -0.0615
     26 C         5.155173   -1.432277   -8.305559 C.3        1 UNL1     -0.0615
     27 C         6.359618   8.892431   -2.353203 C.ar        1 UNL1     0.1347
     28 C         5.41574   9.170658   -1.380714 C.ar        1 UNL1     0.0342
     29 C         4.714505   8.041744   -0.906384 C.ar        1 UNL1     0.1435
     30 C         4.91969   6.756764   -1.410313 C.ar        1 UNL1     0.0774
     31 O         3.686336   8.16408   -0.038681 O.3        1 UNL1     -0.4436
     32 C         2.955919   6.934815   -0.166244 C.3        1 UNL1     0.3143
     33 C         3.956084   5.934231   -0.709121 C.2        1 UNL1     0.2504
     34 C         4.982735   10.540757   -0.938632 C.3        1 UNL1     -0.0327
     35 O         2.611537   6.504716   1.156506 O.2        1 UNL1     -0.4528
     36 C         -0.647424   4.589269   0.812523 C.3        1 UNL1     0.0854
     37 C         -0.972358   3.327289   -0.07593 C.3        1 UNL1     0.0236
     38 C         -1.56866   2.072365   0.724903 C.3        1 UNL1     0.1131
     39 C         -0.8275   1.541929   2.017803 C.3        1 UNL1     0.0200
     40 C         0.833279   1.38727   2.036006 C.3        1 UNL1     0.0661
     41 C         1.771746   0.609036   0.856498 C.3        1 UNL1     0.0091
     42 C         3.473157   0.9601   0.267126 C.3        1 UNL1     0.0661
     43 C         7.482536   7.404847   -4.024668 C.2        1 UNL1     0.2131
     44 O         7.877165   8.298172   -4.751976 O.2        1 UNL1     -0.2851
     45 O         7.17102   9.92139   -2.826815 O.3        1 UNL1     -0.5056
     46 O         3.967272   4.73109   -0.574292 O.2        1 UNL1     -0.2836
     47 C         5.597485   1.294998   1.846015 C.3        1 UNL1     -0.0566
     48 O         3.915029   -0.45319   0.347595 O.3        1 UNL1     -0.3909
     49 C         0.918818   0.376776   -0.37072 C.3        1 UNL1     -0.0577
     50 O         1.445698   2.60313   2.41594 O.3        1 UNL1     -0.3910
     51 O         -0.752849   4.405146   2.206228 O.3        1 UNL1     -0.3753
     52 C         0.054774   3.156976   -1.242524 C.3        1 UNL1     -0.0564
     53 O         -2.189674   1.033623   -0.162613 O.3        1 UNL1     -0.4608
     54 C         -2.395475   -0.27896   0.173095 C.2        1 UNL1     0.3042
     55 O         -1.824482   -1.266279   -0.288432 O.2        1 UNL1     -0.2512
     56 C         -3.402463   -0.467962   1.271715 C.3        1 UNL1     0.0332
     57 C         -1.526892   2.219333   3.28672 C.3        1 UNL1     -0.0567
     58 C         1.866854   7.182111   -1.235968 C.3        1 UNL1     0.0210
     59 C         -1.049016   5.588456   2.946449 C.3        1 UNL1     0.0372
     60 C         0.68163   5.210122   0.560894 C.2        1 UNL1     -0.0208
     61 C         1.609175   5.643291   1.415745 C.2        1 UNL1     0.0882
     62 H         4.713993   2.70877   0.502508 H        1 UNL1     0.0365
     63 H         6.353229   3.572417   -0.356124 H        1 UNL1     0.0576
     64 H         8.333028   1.438991   -1.368875 H        1 UNL1     0.0615
     65 H         8.280327   4.55603   -1.566726 H        1 UNL1     0.0622
     66 H         -1.392254   5.33885   0.510195 H        1 UNL1     0.0645
     67 H         -1.844752   3.63934   -0.676023 H        1 UNL1     0.0362
     68 H         -2.508225   2.515744   1.088434 H        1 UNL1     0.0741
     69 H         -1.161807   0.533386   2.221486 H        1 UNL1     0.0359
     70 H         0.95387   0.729411   2.917901 H        1 UNL1     0.0600
     71 H         1.815725   -0.410858   1.286428 H        1 UNL1     0.0348
     72 H         3.383861   1.452311   1.246447 H        1 UNL1     0.0602
     73 H         0.785922   5.403085   -0.477921 H        1 UNL1     0.0628
     74 H         1.605619   5.436471   2.486469 H        1 UNL1     0.1022
     75 H         10.899594   2.177357   -3.615536 H        1 UNL1     0.0279
     76 H         10.763136   3.388531   -4.827038 H        1 UNL1     0.0279
     77 H         11.890178   3.563786   -3.421919 H        1 UNL1     0.0279
     78 H         9.020784   4.736657   -5.165593 H        1 UNL1     0.1553
     79 H         7.739199   3.273288   -4.788345 H        1 UNL1     0.1484
     80 H         3.985104   2.690704   -4.871161 H        1 UNL1     0.0317
     81 H         4.72155   4.212632   -5.352107 H        1 UNL1     0.0317
     82 H         6.611269   3.008607   -6.480376 H        1 UNL1     0.0428
     83 H         5.043882   2.538886   -7.100348 H        1 UNL1     0.0428
     84 H         6.848077   -0.097716   -4.290303 H        1 UNL1     0.0428
     85 H         7.759696   1.306717   -4.721164 H        1 UNL1     0.0428
     86 H         6.498017   1.393485   -2.57047 H        1 UNL1     0.0317
     87 H         4.989974   1.171822   -3.331406 H        1 UNL1     0.0317
     88 H         7.164972   0.814782   -7.483824 H        1 UNL1     0.0429
     89 H         6.805761   -0.667653   -6.595235 H        1 UNL1     0.0429
     90 H         4.259376   0.232577   -7.386522 H        1 UNL1     0.0308
     91 H         6.232943   0.818621   -9.670464 H        1 UNL1     0.0233
     92 H         4.458896   0.752435   -9.824971 H        1 UNL1     0.0233
     93 H         5.215152   2.012444   -8.873626 H        1 UNL1     0.0233
     94 H         4.487292   -1.569528   -9.162842 H        1 UNL1     0.0233
     95 H         6.152561   -1.772953   -8.597311 H        1 UNL1     0.0233
     96 H         4.795146   -2.057207   -7.483482 H        1 UNL1     0.0233
     97 H         4.16021   10.49951   -0.230831 H        1 UNL1     0.0280
     98 H         5.789134   11.085847   -0.430839 H        1 UNL1     0.0280
     99 H         4.656029   11.125027   -1.81441 H        1 UNL1     0.0280
     100 H         6.704913   10.686324   -3.115331 H        1 UNL1     0.2922
     101 H         4.736511   0.879399   2.369138 H        1 UNL1     0.0236
     102 H         6.071884   2.096384   2.411443 H        1 UNL1     0.0236
     103 H         6.33997   0.479626   1.83723 H        1 UNL1     0.0236
     104 H         4.340837   -0.579991   1.217985 H        1 UNL1     0.2098
     105 H         0.703041   1.274764   -0.944191 H        1 UNL1     0.0234
     106 H         1.274514   -0.415589   -1.029176 H        1 UNL1     0.0234
     107 H         0.0   -0.0   0.0 H        1 UNL1     0.0234
     108 H         1.294461   3.242366   1.693256 H        1 UNL1     0.2098
     109 H         1.085761   3.051502   -0.876938 H        1 UNL1     0.0234
     110 H         -0.185115   2.321183   -1.908592 H        1 UNL1     0.0234
     111 H         0.062676   4.032158   -1.905804 H        1 UNL1     0.0234
     112 H         -3.503722   -1.532302   1.50468 H        1 UNL1     0.0342
     113 H         -3.148903   0.1046   2.162627 H        1 UNL1     0.0342
     114 H         -4.375771   -0.108164   0.91063 H        1 UNL1     0.0342
     115 H         -2.599796   1.98732   3.334001 H        1 UNL1     0.0234
     116 H         -1.086147   1.931057   4.243114 H        1 UNL1     0.0234
     117 H         -1.549101   3.321743   3.240461 H        1 UNL1     0.0234
     118 H         0.97254   7.67126   -0.811771 H        1 UNL1     0.0309
     119 H         2.226206   7.768962   -2.087246 H        1 UNL1     0.0309
     120 H         1.47043   6.250935   -1.65533 H        1 UNL1     0.0309
     121 H         -0.208778   6.271704   2.825908 H        1 UNL1     0.0524
     122 H         -1.950454   6.101532   2.572017 H        1 UNL1     0.0524
     123 H         -1.190029   5.34937   3.996709 H        1 UNL1     0.0524
@<TRIPOS>BOND
     1     1     2    1
     2     1    42    1
     3     2     3    2
     4     3     4    1
     5     4     5    2
     6     5     7    1
     7     6    75    1
     8     6    76    1
     9     6    77    1
    10     7     9   am
    11     9    10    1
    12    10    11    2
    13    10    43    1
    14    11    14    1
    15    11    15    1
    16    12    13   ar
    17    12    27   ar
    18    12    43    1
    19    13    14    1
    20    13    30   ar
    21    14    17    2
    22    15    16    1
    23    16    17    1
    24    16    18    1
    25    16    22    1
    26    18    19    1
    27    19    20    1
    28    20    21    1
    29    21    22    1
    30    23    24    1
    31    23    88    1
    32    23    89    1
    33    24    25    1
    34    24    26    1
    35    24    90    1
    36    25    91    1
    37    25    92    1
    38    25    93    1
    39    26    94    1
    40    26    95    1
    41    26    96    1
    42    27    28   ar
    43    28    29   ar
    44    29    30   ar
    45    29    31    1
    46    30    33    1
    47    31    32    1
    48    32    33    1
    49    32    35    1
    50    34    97    1
    51    34    98    1
    52    34    99    1
    53    35    61    1
    54    36    37    1
    55    36    60    1
    56    37    38    1
    57    38    39    1
    58    39    40    1
    59    40    41    1
    60    41    42    1
    61    45   100    1
    62    47   101    1
    63    47   102    1
    64    47   103    1
    65    48   104    1
    66    49   105    1
    67    49   106    1
    68    49   107    1
    69    50   108    1
    70    51    59    1
    71    52   109    1
    72    52   110    1
    73    52   111    1
    74    53    54    1
    75    54    55    2
    76    54    56    1
    77    56   112    1
    78    56   113    1
    79    56   114    1
    80    57   115    1
    81    57   116    1
    82    57   117    1
    83    58   118    1
    84    58   119    1
    85    58   120    1
    86    59   121    1
    87    59   122    1
    88    59   123    1
    89    60    61    2
    90     1    47    1
    91     1    62    1
    92     2    63    1
    93     3    64    1
    94     4    65    1
    95     5     6    1
    96     7     8    2
    97     9    78    1
    98    15    79    1
    99    18    80    1
   100    18    81    1
   101    19    82    1
   102    19    83    1
   103    20    23    1
   104    21    84    1
   105    21    85    1
   106    22    86    1
   107    22    87    1
   108    27    45    1
   109    28    34    1
   110    32    58    1
   111    33    46    2
   112    36    51    1
   113    36    66    1
   114    37    52    1
   115    37    67    1
   116    38    53    1
   117    38    68    1
   118    42    48    1
   119    42    72    1
   120    43    44    2
   121    60    73    1
   122    61    74    1
   123    39    69    1
   124    39    57    1
   125    40    70    1
   126    40    50    1
   127    41    71    1
   128    41    49    1
