@<TRIPOS>MOLECULE
*****
 123 128 0 0 0
SMALL
GASTEIGER

@<TRIPOS>ATOM
     1 C         -2.186754   2.054059   2.832354 C.3        1 UNL1     0.0009
     2 C         -3.671604   3.129109   2.555719 C.2        1 UNL1     -0.0787
     3 C         -4.254675   4.440101   2.362396 C.2        1 UNL1     -0.0649
     4 C         -5.864748   4.820062   2.002326 C.2        1 UNL1     -0.0542
     5 C         -6.735659   5.807746   1.479761 C.2        1 UNL1     0.0115
     6 C         -6.825246   7.290323   1.0245 C.3        1 UNL1     -0.0348
     7 C         -8.206095   5.373712   1.003922 C.2        1 UNL1     0.2441
     8 O         -9.209508   5.578384   1.673098 O.2        1 UNL1     -0.2702
     9 N         -8.297181   4.980063   -0.342516 N.am        1 UNL1     -0.2772
     10 C         -8.036899   3.63478   -0.468169 C.2        1 UNL1     0.1049
     11 C         -6.762877   3.290981   -0.52196 C.2        1 UNL1     0.0801
     12 C         -8.63949   1.400615   0.481951 C.ar        1 UNL1     0.0753
     13 C         -7.233645   1.157921   0.597313 C.ar        1 UNL1     0.0305
     14 C         -6.250858   2.043354   -0.023321 C.2        1 UNL1     0.0924
     15 N         -5.668401   4.05396   -0.684784 N.pl3        1 UNL1     -0.3170
     16 C         -4.540431   3.175454   -0.846535 C.3        1 UNL1     0.1275
     17 N         -4.928887   1.920928   -0.102904 N.2        1 UNL1     -0.2557
     18 C         -4.475023   2.790422   -2.321383 C.3        1 UNL1     0.0016
     19 C         -4.405366   4.061213   -3.153145 C.3        1 UNL1     0.0026
     20 N         -3.225013   4.816178   -2.755875 N.3        1 UNL1     -0.3018
     21 C         -3.167529   5.179832   -1.338546 C.3        1 UNL1     0.0026
     22 C         -3.234252   3.888184   -0.521791 C.3        1 UNL1     0.0016
     23 C         -2.900528   5.88358   -3.681081 C.3        1 UNL1     0.0012
     24 C         -3.094056   5.415987   -5.13217 C.3        1 UNL1     -0.0339
     25 C         -1.953014   4.488278   -5.580985 C.3        1 UNL1     -0.0615
     26 C         -4.450132   4.75005   -5.288264 C.3        1 UNL1     -0.0615
     27 C         -9.571856   0.489098   0.971796 C.ar        1 UNL1     0.1347
     28 C         -9.22048   -0.713546   1.558508 C.ar        1 UNL1     0.0342
     29 C         -7.830673   -0.908601   1.705325 C.ar        1 UNL1     0.1435
     30 C         -6.885294   0.012266   1.252019 C.ar        1 UNL1     0.0774
     31 O         -7.326992   -2.077671   2.157637 O.3        1 UNL1     -0.4436
     32 C         -5.957399   -2.073109   1.727443 C.3        1 UNL1     0.3143
     33 C         -5.608701   -0.611575   1.531124 C.2        1 UNL1     0.2504
     34 C         -10.15661   -1.845919   1.877086 C.3        1 UNL1     -0.0327
     35 O         -5.16516   -2.547489   2.82315 O.2        1 UNL1     -0.4528
     36 C         -2.158981   -4.264827   1.26696 C.3        1 UNL1     0.0854
     37 C         -1.086027   -3.683406   0.267839 C.3        1 UNL1     0.0236
     38 C         0.436128   -3.827998   0.75145 C.3        1 UNL1     0.1131
     39 C         0.849573   -3.342108   2.198946 C.3        1 UNL1     0.0200
     40 C         0.283931   -1.891218   2.796781 C.3        1 UNL1     0.0661
     41 C         0.334445   -0.39807   1.99331 C.3        1 UNL1     0.0091
     42 C         -0.817103   1.028451   2.059473 C.3        1 UNL1     0.0661
     43 C         -9.072753   2.612749   -0.256478 C.2        1 UNL1     0.2131
     44 O         -10.175276   2.737024   -0.75821 O.2        1 UNL1     -0.2851
     45 O         -10.920124   0.822547   0.860338 O.3        1 UNL1     -0.5056
     46 O         -4.524503   -0.078453   1.609539 O.2        1 UNL1     -0.2836
     47 C         -1.697581   2.17753   4.300497 C.3        1 UNL1     -0.0566
     48 O         0.258581   2.034826   2.230439 O.3        1 UNL1     -0.3909
     49 C         0.654825   -0.639225   0.534991 C.3        1 UNL1     -0.0577
     50 O         -0.972876   -2.062012   3.420472 O.3        1 UNL1     -0.3910
     51 O         -1.67109   -4.676151   2.524022 O.3        1 UNL1     -0.3753
     52 C         -1.607101   -2.404867   -0.46617 C.3        1 UNL1     -0.0564
     53 O         1.438084   -3.598098   -0.341965 O.3        1 UNL1     -0.4608
     54 C         2.799764   -3.647125   -0.195837 C.2        1 UNL1     0.3042
     55 O         3.580575   -2.697397   -0.149056 O.2        1 UNL1     -0.2512
     56 C         3.336293   -5.039571   -0.022791 C.3        1 UNL1     0.0332
     57 C         0.804443   -4.615115   3.166206 C.3        1 UNL1     -0.0567
     58 C         -5.92818   -2.781897   0.353291 C.3        1 UNL1     0.0210
     59 C         -2.606739   -5.398782   3.322915 C.3        1 UNL1     0.0372
     60 C         -3.322384   -3.374194   1.528544 C.2        1 UNL1     -0.0208
     61 C         -3.92675   -3.055488   2.673932 C.2        1 UNL1     0.0882
     62 H         -2.840297   1.174252   2.793198 H        1 UNL1     0.0365
     63 H         -4.472002   2.388077   2.607729 H        1 UNL1     0.0576
     64 H         -3.634462   5.334515   2.270378 H        1 UNL1     0.0615
     65 H         -6.402778   3.889045   2.200351 H        1 UNL1     0.0622
     66 H         -2.564838   -5.1476   0.753113 H        1 UNL1     0.0645
     67 H         -1.111487   -4.380038   -0.588091 H        1 UNL1     0.0362
     68 H         0.517319   -4.925376   0.777769 H        1 UNL1     0.0741
     69 H         1.922724   -3.208235   2.227822 H        1 UNL1     0.0359
     70 H         0.990813   -1.74191   3.635282 H        1 UNL1     0.0600
     71 H         1.302399   -0.010192   2.366906 H        1 UNL1     0.0348
     72 H         -1.016378   0.435653   2.964015 H        1 UNL1     0.0602
     73 H         -3.746145   -3.072281   0.603059 H        1 UNL1     0.0628
     74 H         -3.527146   -3.276356   3.664271 H        1 UNL1     0.1022
     75 H         -6.995035   7.960194   1.9017 H        1 UNL1     0.0279
     76 H         -5.930185   7.714825   0.575355 H        1 UNL1     0.0279
     77 H         -7.719794   7.495777   0.418469 H        1 UNL1     0.0279
     78 H         -7.601423   5.479383   -0.892677 H        1 UNL1     0.1553
     79 H         -5.689357   4.985928   -1.056174 H        1 UNL1     0.1484
     80 H         -3.596466   2.155069   -2.486398 H        1 UNL1     0.0317
     81 H         -5.349416   2.197359   -2.610111 H        1 UNL1     0.0317
     82 H         -5.317075   4.667456   -3.047464 H        1 UNL1     0.0428
     83 H         -4.361242   3.763684   -4.201276 H        1 UNL1     0.0428
     84 H         -2.235367   5.67566   -1.050381 H        1 UNL1     0.0428
     85 H         -3.948985   5.904209   -1.070366 H        1 UNL1     0.0428
     86 H         -3.056374   4.180068   0.496616 H        1 UNL1     0.0317
     87 H         -2.37306   3.251016   -0.757297 H        1 UNL1     0.0317
     88 H         -3.584103   6.721061   -3.489647 H        1 UNL1     0.0429
     89 H         -1.881236   6.256645   -3.517864 H        1 UNL1     0.0429
     90 H         -3.112487   6.291345   -5.792185 H        1 UNL1     0.0308
     91 H         -1.232347   5.01968   -6.209757 H        1 UNL1     0.0233
     92 H         -1.433601   4.068582   -4.716303 H        1 UNL1     0.0233
     93 H         -2.315008   3.633356   -6.164856 H        1 UNL1     0.0233
     94 H         -5.226712   5.506609   -5.444402 H        1 UNL1     0.0233
     95 H         -4.443643   4.088857   -6.159323 H        1 UNL1     0.0233
     96 H         -4.711405   4.164352   -4.402453 H        1 UNL1     0.0233
     97 H         -10.935607   -1.547299   2.572226 H        1 UNL1     0.0280
     98 H         -10.676631   -2.216654   0.98412 H        1 UNL1     0.0280
     99 H         -9.590401   -2.676885   2.328747 H        1 UNL1     0.0280
     100 H         -11.347071   0.47685   0.096249 H        1 UNL1     0.2922
     101 H         -1.435925   1.191948   4.684971 H        1 UNL1     0.0236
     102 H         -2.406918   2.693525   4.946697 H        1 UNL1     0.0236
     103 H         -0.767329   2.7646   4.379075 H        1 UNL1     0.0236
     104 H         0.295681   2.268735   3.178532 H        1 UNL1     0.2098
     105 H         1.673061   -0.385578   0.250968 H        1 UNL1     0.0234
     106 H         0.397615   -1.633731   0.170671 H        1 UNL1     0.0234
     107 H         0.0   0.0   -0.0 H        1 UNL1     0.0234
     108 H         -1.636749   -1.611764   2.863411 H        1 UNL1     0.2098
     109 H         -0.815297   -1.90234   -1.039078 H        1 UNL1     0.0234
     110 H         -2.463183   -2.602843   -1.120137 H        1 UNL1     0.0234
     111 H         -1.981936   -1.655272   0.243444 H        1 UNL1     0.0234
     112 H         4.362278   -4.998744   0.355408 H        1 UNL1     0.0342
     113 H         2.704467   -5.644214   0.62609 H        1 UNL1     0.0342
     114 H         3.359917   -5.523186   -1.009058 H        1 UNL1     0.0342
     115 H         -0.029498   -5.286433   2.919097 H        1 UNL1     0.0234
     116 H         1.71916   -5.211171   3.158505 H        1 UNL1     0.0234
     117 H         0.571252   -4.362707   4.214945 H        1 UNL1     0.0234
     118 H         -6.706784   -3.56044   0.271724 H        1 UNL1     0.0309
     119 H         -6.024157   -2.089734   -0.489266 H        1 UNL1     0.0309
     120 H         -4.998225   -3.336223   0.185926 H        1 UNL1     0.0309
     121 H         -3.030352   -4.702106   4.045793 H        1 UNL1     0.0524
     122 H         -3.440096   -5.805548   2.726178 H        1 UNL1     0.0524
     123 H         -2.109418   -6.21627   3.83719 H        1 UNL1     0.0524
@<TRIPOS>BOND
     1     1     2    1
     2     1    42    1
     3     2     3    2
     4     3     4    1
     5     4     5    2
     6     5     7    1
     7     6    75    1
     8     6    76    1
     9     6    77    1
    10     7     9   am
    11     9    10    1
    12    10    11    2
    13    10    43    1
    14    11    14    1
    15    11    15    1
    16    12    13   ar
    17    12    27   ar
    18    12    43    1
    19    13    14    1
    20    13    30   ar
    21    14    17    2
    22    15    16    1
    23    16    17    1
    24    16    18    1
    25    16    22    1
    26    18    19    1
    27    19    20    1
    28    20    21    1
    29    21    22    1
    30    23    24    1
    31    23    88    1
    32    23    89    1
    33    24    25    1
    34    24    26    1
    35    24    90    1
    36    25    91    1
    37    25    92    1
    38    25    93    1
    39    26    94    1
    40    26    95    1
    41    26    96    1
    42    27    28   ar
    43    28    29   ar
    44    29    30   ar
    45    29    31    1
    46    30    33    1
    47    31    32    1
    48    32    33    1
    49    32    35    1
    50    34    97    1
    51    34    98    1
    52    34    99    1
    53    35    61    1
    54    36    37    1
    55    36    60    1
    56    37    38    1
    57    38    39    1
    58    39    40    1
    59    40    41    1
    60    41    42    1
    61    45   100    1
    62    47   101    1
    63    47   102    1
    64    47   103    1
    65    48   104    1
    66    49   105    1
    67    49   106    1
    68    49   107    1
    69    50   108    1
    70    51    59    1
    71    52   109    1
    72    52   110    1
    73    52   111    1
    74    53    54    1
    75    54    55    2
    76    54    56    1
    77    56   112    1
    78    56   113    1
    79    56   114    1
    80    57   115    1
    81    57   116    1
    82    57   117    1
    83    58   118    1
    84    58   119    1
    85    58   120    1
    86    59   121    1
    87    59   122    1
    88    59   123    1
    89    60    61    2
    90     1    47    1
    91     1    62    1
    92     2    63    1
    93     3    64    1
    94     4    65    1
    95     5     6    1
    96     7     8    2
    97     9    78    1
    98    15    79    1
    99    18    80    1
   100    18    81    1
   101    19    82    1
   102    19    83    1
   103    20    23    1
   104    21    84    1
   105    21    85    1
   106    22    86    1
   107    22    87    1
   108    27    45    1
   109    28    34    1
   110    32    58    1
   111    33    46    2
   112    36    51    1
   113    36    66    1
   114    37    52    1
   115    37    67    1
   116    38    53    1
   117    38    68    1
   118    42    48    1
   119    42    72    1
   120    43    44    2
   121    60    73    1
   122    61    74    1
   123    39    69    1
   124    39    57    1
   125    40    70    1
   126    40    50    1
   127    41    71    1
   128    41    49    1
