@<TRIPOS>MOLECULE
*****
 123 128 0 0 0
SMALL
GASTEIGER

@<TRIPOS>ATOM
     1 C         5.164653   1.763749   0.463492 C.3        1 UNL1     0.0009
     2 C         6.594133   2.574735   -0.394368 C.2        1 UNL1     -0.0787
     3 C         7.872526   2.480836   -1.067377 C.2        1 UNL1     -0.0649
     4 C         8.742041   3.719108   -1.82697 C.2        1 UNL1     -0.0542
     5 C         9.755892   4.015462   -2.771088 C.2        1 UNL1     0.0115
     6 C         10.881043   3.393998   -3.643523 C.3        1 UNL1     -0.0348
     7 C         9.843419   5.499437   -3.377015 C.2        1 UNL1     0.2441
     8 O         10.666981   6.323248   -3.003374 O.2        1 UNL1     -0.2702
     9 N         9.086005   5.705032   -4.543293 N.am        1 UNL1     -0.2772
     10 C         7.803938   6.087678   -4.222031 C.2        1 UNL1     0.1049
     11 C         6.962691   5.113549   -3.926063 C.2        1 UNL1     0.0801
     12 C         6.508762   7.689443   -2.802805 C.ar        1 UNL1     0.0753
     13 C         5.755581   6.558956   -2.351889 C.ar        1 UNL1     0.0305
     14 C         5.872741   5.254078   -2.998897 C.2        1 UNL1     0.0924
     15 N         7.088348   3.785056   -4.086831 N.pl3        1 UNL1     -0.3170
     16 C         5.822059   3.181895   -3.765955 C.3        1 UNL1     0.1275
     17 N         5.188364   4.134523   -2.781754 N.2        1 UNL1     -0.2557
     18 C         4.961933   3.239357   -5.024758 C.3        1 UNL1     0.0016
     19 C         5.712466   2.558329   -6.158112 C.3        1 UNL1     0.0026
     20 N         5.988858   1.180753   -5.774808 N.3        1 UNL1     -0.3018
     21 C         6.759656   1.021721   -4.539921 C.3        1 UNL1     0.0026
     22 C         5.985198   1.709111   -3.414042 C.3        1 UNL1     0.0016
     23 C         6.42953   0.363346   -6.887596 C.3        1 UNL1     0.0012
     24 C         5.269314   0.111161   -7.86333 C.3        1 UNL1     -0.0339
     25 C         5.354796   1.034932   -9.089461 C.3        1 UNL1     -0.0615
     26 C         5.237445   -1.352576   -8.26736 C.3        1 UNL1     -0.0615
     27 C         6.303393   8.956131   -2.261101 C.ar        1 UNL1     0.1347
     28 C         5.348965   9.222136   -1.295514 C.ar        1 UNL1     0.0342
     29 C         4.653371   8.085276   -0.831981 C.ar        1 UNL1     0.1435
     30 C         4.873758   6.804273   -1.339604 C.ar        1 UNL1     0.0774
     31 O         3.616875   8.195135   0.027445 O.3        1 UNL1     -0.4436
     32 C         2.898061   6.960284   -0.111562 C.3        1 UNL1     0.3143
     33 C         3.911279   5.970574   -0.65015 C.2        1 UNL1     0.2504
     34 C         4.900575   10.586589   -0.851314 C.3        1 UNL1     -0.0327
     35 O         2.546146   6.521563   1.206365 O.2        1 UNL1     -0.4528
     36 C         -0.69335   4.580057   0.826489 C.3        1 UNL1     0.0854
     37 C         -0.999978   3.319222   -0.070058 C.3        1 UNL1     0.0236
     38 C         -1.592343   2.055834   0.720321 C.3        1 UNL1     0.1131
     39 C         -0.857686   1.526115   2.01722 C.3        1 UNL1     0.0200
     40 C         0.804135   1.385467   2.048912 C.3        1 UNL1     0.0661
     41 C         1.759167   0.620327   0.874142 C.3        1 UNL1     0.0091
     42 C         3.462464   0.988351   0.300783 C.3        1 UNL1     0.0661
     43 C         7.453076   7.485366   -3.929253 C.2        1 UNL1     0.2131
     44 O         7.846238   8.385142   -4.649366 O.2        1 UNL1     -0.2851
     45 O         7.109992   9.993972   -2.723404 O.3        1 UNL1     -0.5056
     46 O         3.931568   4.766999   -0.520349 O.2        1 UNL1     -0.2836
     47 C         5.570394   1.334417   1.899121 C.3        1 UNL1     -0.0566
     48 O         3.915657   -0.421476   0.379002 O.3        1 UNL1     -0.3909
     49 C         0.918687   0.386154   -0.361273 C.3        1 UNL1     -0.0577
     50 O         1.402934   2.604821   2.439217 O.3        1 UNL1     -0.3910
     51 O         -0.809021   4.38902   2.218451 O.3        1 UNL1     -0.3753
     52 C         0.038425   3.162672   -1.228574 C.3        1 UNL1     -0.0564
     53 O         -2.196938   1.015713   -0.176862 O.3        1 UNL1     -0.4608
     54 C         -2.394394   -0.300008   0.151495 C.2        1 UNL1     0.3042
     55 O         -1.748054   -1.271986   -0.237532 O.2        1 UNL1     -0.2512
     56 C         -3.502297   -0.512544   1.14351 C.3        1 UNL1     0.0332
     57 C         -1.573559   2.192069   3.283003 C.3        1 UNL1     -0.0567
     58 C         1.816042   7.202961   -1.189463 C.3        1 UNL1     0.0210
     59 C         -1.121522   5.566564   2.961148 C.3        1 UNL1     0.0372
     60 C         0.632456   5.21324   0.588835 C.2        1 UNL1     -0.0208
     61 C         1.548994   5.650556   1.45339 C.2        1 UNL1     0.0882
     62 H         4.686324   2.746445   0.554162 H        1 UNL1     0.0365
     63 H         6.325369   3.627666   -0.286795 H        1 UNL1     0.0576
     64 H         8.331782   1.515504   -1.291708 H        1 UNL1     0.0615
     65 H         8.25422   4.632811   -1.476742 H        1 UNL1     0.0622
     66 H         -1.441945   5.324597   0.521019 H        1 UNL1     0.0645
     67 H         -1.869877   3.626457   -0.676229 H        1 UNL1     0.0362
     68 H         -2.538699   2.489654   1.077718 H        1 UNL1     0.0741
     69 H         -1.185108   0.513902   2.213757 H        1 UNL1     0.0359
     70 H         0.92284   0.724845   2.928997 H        1 UNL1     0.0600
     71 H         1.808181   -0.401007   1.30009 H        1 UNL1     0.0348
     72 H         3.360677   1.475547   1.281393 H        1 UNL1     0.0602
     73 H         0.743908   5.411571   -0.448224 H        1 UNL1     0.0628
     74 H         1.538117   5.439084   2.523156 H        1 UNL1     0.1022
     75 H         10.878131   2.281011   -3.552498 H        1 UNL1     0.0279
     76 H         10.799077   3.541375   -4.71806 H        1 UNL1     0.0279
     77 H         11.888376   3.638932   -3.276114 H        1 UNL1     0.0279
     78 H         9.023611   4.835275   -5.068371 H        1 UNL1     0.1553
     79 H         7.751381   3.359473   -4.708281 H        1 UNL1     0.1484
     80 H         4.00322   2.745442   -4.82555 H        1 UNL1     0.0317
     81 H         4.730733   4.275625   -5.293727 H        1 UNL1     0.0317
     82 H         6.640138   3.092558   -6.410969 H        1 UNL1     0.0428
     83 H         5.082123   2.61225   -7.046262 H        1 UNL1     0.0428
     84 H         6.884805   -0.021088   -4.232189 H        1 UNL1     0.0428
     85 H         7.788053   1.392874   -4.649292 H        1 UNL1     0.0428
     86 H         6.507484   1.459638   -2.509073 H        1 UNL1     0.0317
     87 H         5.007892   1.228489   -3.283764 H        1 UNL1     0.0317
     88 H         7.220995   0.907868   -7.418984 H        1 UNL1     0.0429
     89 H         6.866896   -0.581389   -6.539801 H        1 UNL1     0.0429
     90 H         4.31974   0.300632   -7.348914 H        1 UNL1     0.0308
     91 H         6.307547   0.913262   -9.613449 H        1 UNL1     0.0233
     92 H         4.535503   0.832705   -9.783343 H        1 UNL1     0.0233
     93 H         5.272904   2.094955   -8.820239 H        1 UNL1     0.0233
     94 H         4.578053   -1.491776   -9.130877 H        1 UNL1     0.0233
     95 H         6.240137   -1.683518   -8.552051 H        1 UNL1     0.0233
     96 H         4.875793   -1.984086   -7.451045 H        1 UNL1     0.0233
     97 H         4.072457   10.535308   -0.150727 H        1 UNL1     0.0280
     98 H         5.697966   11.136296   -0.334356 H        1 UNL1     0.0280
     99 H         4.576345   11.17185   -1.72735 H        1 UNL1     0.0280
     100 H         6.642529   10.771469   -2.973601 H        1 UNL1     0.2922
     101 H         4.688595   1.002112   2.446533 H        1 UNL1     0.0236
     102 H         6.119755   2.105639   2.438012 H        1 UNL1     0.0236
     103 H         6.243269   0.460678   1.895475 H        1 UNL1     0.0236
     104 H         4.252652   -0.573208   1.283647 H        1 UNL1     0.2098
     105 H         0.700144   1.284752   -0.932738 H        1 UNL1     0.0234
     106 H         1.28669   -0.400311   -1.02004 H        1 UNL1     0.0234
     107 H         0.0   -0.0   0.0 H        1 UNL1     0.0234
     108 H         1.252394   3.245871   1.717996 H        1 UNL1     0.2098
     109 H         1.067135   3.064364   -0.854671 H        1 UNL1     0.0234
     110 H         -0.188679   2.327763   -1.90021 H        1 UNL1     0.0234
     111 H         0.0445   4.04075   -1.888034 H        1 UNL1     0.0234
     112 H         -3.593141   -1.577613   1.377435 H        1 UNL1     0.0342
     113 H         -3.359766   0.075551   2.048868 H        1 UNL1     0.0342
     114 H         -4.444329   -0.187879   0.680549 H        1 UNL1     0.0342
     115 H         -2.660766   2.03421   3.26723 H        1 UNL1     0.0234
     116 H         -1.203076   1.829876   4.244049 H        1 UNL1     0.0234
     117 H         -1.518348   3.294267   3.290209 H        1 UNL1     0.0234
     118 H         0.914029   7.68267   -0.770823 H        1 UNL1     0.0309
     119 H         2.177591   7.796515   -2.035146 H        1 UNL1     0.0309
     120 H         1.431133   6.270279   -1.616143 H        1 UNL1     0.0309
     121 H         -0.787958   5.407992   3.986304 H        1 UNL1     0.0524
     122 H         -0.596662   6.456257   2.575134 H        1 UNL1     0.0524
     123 H         -2.191757   5.751563   2.939579 H        1 UNL1     0.0524
@<TRIPOS>BOND
     1     1     2    1
     2     1    42    1
     3     2     3    2
     4     3     4    1
     5     4     5    2
     6     5     7    1
     7     6    75    1
     8     6    76    1
     9     6    77    1
    10     7     9   am
    11     9    10    1
    12    10    11    2
    13    10    43    1
    14    11    14    1
    15    11    15    1
    16    12    13   ar
    17    12    27   ar
    18    12    43    1
    19    13    14    1
    20    13    30   ar
    21    14    17    2
    22    15    16    1
    23    16    17    1
    24    16    18    1
    25    16    22    1
    26    18    19    1
    27    19    20    1
    28    20    21    1
    29    21    22    1
    30    23    24    1
    31    23    88    1
    32    23    89    1
    33    24    25    1
    34    24    26    1
    35    24    90    1
    36    25    91    1
    37    25    92    1
    38    25    93    1
    39    26    94    1
    40    26    95    1
    41    26    96    1
    42    27    28   ar
    43    28    29   ar
    44    29    30   ar
    45    29    31    1
    46    30    33    1
    47    31    32    1
    48    32    33    1
    49    32    35    1
    50    34    97    1
    51    34    98    1
    52    34    99    1
    53    35    61    1
    54    36    37    1
    55    36    60    1
    56    37    38    1
    57    38    39    1
    58    39    40    1
    59    40    41    1
    60    41    42    1
    61    45   100    1
    62    47   101    1
    63    47   102    1
    64    47   103    1
    65    48   104    1
    66    49   105    1
    67    49   106    1
    68    49   107    1
    69    50   108    1
    70    51    59    1
    71    52   109    1
    72    52   110    1
    73    52   111    1
    74    53    54    1
    75    54    55    2
    76    54    56    1
    77    56   112    1
    78    56   113    1
    79    56   114    1
    80    57   115    1
    81    57   116    1
    82    57   117    1
    83    58   118    1
    84    58   119    1
    85    58   120    1
    86    59   121    1
    87    59   122    1
    88    59   123    1
    89    60    61    2
    90     1    47    1
    91     1    62    1
    92     2    63    1
    93     3    64    1
    94     4    65    1
    95     5     6    1
    96     7     8    2
    97     9    78    1
    98    15    79    1
    99    18    80    1
   100    18    81    1
   101    19    82    1
   102    19    83    1
   103    20    23    1
   104    21    84    1
   105    21    85    1
   106    22    86    1
   107    22    87    1
   108    27    45    1
   109    28    34    1
   110    32    58    1
   111    33    46    2
   112    36    51    1
   113    36    66    1
   114    37    52    1
   115    37    67    1
   116    38    53    1
   117    38    68    1
   118    42    48    1
   119    42    72    1
   120    43    44    2
   121    60    73    1
   122    61    74    1
   123    39    69    1
   124    39    57    1
   125    40    70    1
   126    40    50    1
   127    41    71    1
   128    41    49    1
