@<TRIPOS>MOLECULE
*****
 123 128 0 0 0
SMALL
GASTEIGER

@<TRIPOS>ATOM
     1 C         3.89888   -0.384765   -1.793548 C.3        1 UNL1     0.0009
     2 C         5.500699   -0.817616   -0.966593 C.2        1 UNL1     -0.0787
     3 C         6.807932   -0.429935   -0.479876 C.2        1 UNL1     -0.0649
     4 C         7.909893   -1.365785   0.401159 C.2        1 UNL1     -0.0542
     5 C         9.036403   -1.331595   1.259579 C.2        1 UNL1     0.0115
     6 C         10.135293   -0.408712   1.854601 C.3        1 UNL1     -0.0348
     7 C         9.388786   -2.632863   2.131081 C.2        1 UNL1     0.2441
     8 O         10.284429   -3.410946   1.832858 O.2        1 UNL1     -0.2702
     9 N         8.776422   -2.678364   3.395633 N.am        1 UNL1     -0.2772
     10 C         7.538379   -3.272491   3.308551 C.2        1 UNL1     0.1049
     11 C         6.543645   -2.491785   2.927467 C.2        1 UNL1     0.0801
     12 C         6.362511   -5.282066   2.394071 C.ar        1 UNL1     0.0753
     13 C         5.41835   -4.371661   1.821069 C.ar        1 UNL1     0.0305
     14 C         5.405949   -2.955412   2.180424 C.2        1 UNL1     0.0924
     15 N         6.492521   -1.154022   2.807865 N.pl3        1 UNL1     -0.3170
     16 C         5.129488   -0.789892   2.525367 C.3        1 UNL1     0.1275
     17 N         4.552191   -1.998035   1.829061 N.2        1 UNL1     -0.2557
     18 C         4.403082   -0.684649   3.862887 C.3        1 UNL1     0.0016
     19 C         5.147689   0.305602   4.74411 C.3        1 UNL1     0.0026
     20 N         5.18921   1.594628   4.067564 N.3        1 UNL1     -0.3018
     21 C         5.815235   1.582131   2.743817 C.3        1 UNL1     0.0026
     22 C         5.048625   0.584385   1.873929 C.3        1 UNL1     0.0016
     23 C         5.607095   2.675311   4.938277 C.3        1 UNL1     0.0012
     24 C         6.398205   2.126643   6.136136 C.3        1 UNL1     -0.0339
     25 C         6.381191   3.109001   7.318819 C.3        1 UNL1     -0.0615
     26 C         5.86107   0.762949   6.53439 C.3        1 UNL1     -0.0615
     27 C         6.29199   -6.649773   2.140053 C.ar        1 UNL1     0.1347
     28 C         5.302313   -7.226794   1.3644 C.ar        1 UNL1     0.0342
     29 C         4.412872   -6.305889   0.771109 C.ar        1 UNL1     0.1435
     30 C         4.493089   -4.929657   0.987375 C.ar        1 UNL1     0.0774
     31 O         3.329583   -6.719022   0.077702 O.3        1 UNL1     -0.4436
     32 C         2.457472   -5.578956   0.054379 C.3        1 UNL1     0.3143
     33 C         3.363494   -4.382741   0.265111 C.2        1 UNL1     0.2504
     34 C         5.01496   -8.69823   1.253029 C.3        1 UNL1     -0.0327
     35 O         1.929503   -5.473615   -1.273553 O.2        1 UNL1     -0.4528
     36 C         -1.506315   -3.902625   -0.905809 C.3        1 UNL1     0.0854
     37 C         -1.907714   -2.527862   -0.245182 C.3        1 UNL1     0.0236
     38 C         -2.742843   -1.540566   -1.19363 C.3        1 UNL1     0.1131
     39 C         -2.210879   -1.210926   -2.646427 C.3        1 UNL1     0.0200
     40 C         -0.595751   -0.879897   -2.899845 C.3        1 UNL1     0.0661
     41 C         0.342158   0.225437   -2.018838 C.3        1 UNL1     0.0091
     42 C         2.12512   0.195508   -1.588079 C.3        1 UNL1     0.0661
     43 C         7.365516   -4.732458   3.339677 C.2        1 UNL1     0.2131
     44 O         7.946122   -5.405966   4.171555 O.2        1 UNL1     -0.2851
     45 O         7.276616   -7.46144   2.699647 O.3        1 UNL1     -0.5056
     46 O         3.200191   -3.240119   -0.100403 O.2        1 UNL1     -0.2836
     47 C         4.108475   -0.221562   -3.323063 C.3        1 UNL1     -0.0566
     48 O         2.363752   1.601498   -1.99473 O.3        1 UNL1     -0.3909
     49 C         -0.408574   0.611028   -0.763762 C.3        1 UNL1     -0.0577
     50 O         0.133251   -2.072401   -3.110113 O.3        1 UNL1     -0.3910
     51 O         -1.772761   -4.024527   -2.284786 O.3        1 UNL1     -0.3753
     52 C         -0.802305   -2.006205   0.729956 C.3        1 UNL1     -0.0564
     53 O         -3.406413   -0.415857   -0.454016 O.3        1 UNL1     -0.4608
     54 C         -4.624833   0.129723   -0.763411 C.2        1 UNL1     0.3042
     55 O         -5.497352   0.501589   0.020339 O.2        1 UNL1     -0.2512
     56 C         -4.840789   0.322029   -2.237554 C.3        1 UNL1     0.0332
     57 C         -2.935382   -2.210251   -3.66359 C.3        1 UNL1     -0.0567
     58 C         1.52249   -5.718357   1.278268 C.3        1 UNL1     0.0210
     59 C         -2.964833   -4.740761   -2.603909 C.3        1 UNL1     0.0372
     60 C         -0.087822   -4.306198   -0.705393 C.2        1 UNL1     -0.0208
     61 C         0.800202   -4.801514   -1.568422 C.2        1 UNL1     0.0882
     62 H         3.559375   -1.415043   -1.63238 H        1 UNL1     0.0365
     63 H         5.376253   -1.894203   -0.832638 H        1 UNL1     0.0576
     64 H         7.143135   0.609344   -0.505283 H        1 UNL1     0.0615
     65 H         7.527849   -2.384961   0.297208 H        1 UNL1     0.0622
     66 H         -2.110551   -4.651172   -0.374187 H        1 UNL1     0.0645
     67 H         -2.666832   -2.803561   0.50734 H        1 UNL1     0.0362
     68 H         -3.645934   -2.151285   -1.345191 H        1 UNL1     0.0741
     69 H         -2.695631   -0.310101   -2.998476 H        1 UNL1     0.0359
     70 H         -0.652102   -0.410079   -3.900423 H        1 UNL1     0.0600
     71 H         0.20652   1.132377   -2.640142 H        1 UNL1     0.0348
     72 H         2.006069   -0.495972   -2.434836 H        1 UNL1     0.0602
     73 H         0.143588   -4.266639   0.330046 H        1 UNL1     0.0628
     74 H         0.663113   -4.823034   -2.650079 H        1 UNL1     0.1022
     75 H         10.753464   0.040224   1.040135 H        1 UNL1     0.0279
     76 H         9.790476   0.468424   2.397559 H        1 UNL1     0.0279
     77 H         10.895668   -0.964482   2.422624 H        1 UNL1     0.0279
     78 H         8.63812   -1.731625   3.742959 H        1 UNL1     0.1553
     79 H         7.141267   -0.529987   3.251308 H        1 UNL1     0.1484
     80 H         3.369745   -0.363612   3.684242 H        1 UNL1     0.0317
     81 H         4.347152   -1.661208   4.35569 H        1 UNL1     0.0317
     82 H         6.161004   -0.047002   4.986549 H        1 UNL1     0.0428
     83 H         4.613936   0.364034   5.693185 H        1 UNL1     0.0428
     84 H         5.762213   2.544025   2.224433 H        1 UNL1     0.0428
     85 H         6.891674   1.369692   2.80269 H        1 UNL1     0.0428
     86 H         5.446469   0.699014   0.882683 H        1 UNL1     0.0317
     87 H         4.005055   0.904796   1.767178 H        1 UNL1     0.0317
     88 H         6.261816   3.343314   4.363468 H        1 UNL1     0.0429
     89 H         4.749238   3.2738   5.270942 H        1 UNL1     0.0429
     90 H         7.439252   1.961936   5.833966 H        1 UNL1     0.0308
     91 H         6.474602   2.583352   8.273843 H        1 UNL1     0.0233
     92 H         7.191728   3.836007   7.228816 H        1 UNL1     0.0233
     93 H         5.452525   3.690596   7.365309 H        1 UNL1     0.0233
     94 H         6.379168   0.39929   7.428348 H        1 UNL1     0.0233
     95 H         4.795215   0.834958   6.768338 H        1 UNL1     0.0233
     96 H         5.99804   0.030736   5.733721 H        1 UNL1     0.0233
     97 H         5.90112   -9.30086   1.428493 H        1 UNL1     0.0280
     98 H         4.273582   -9.032091   1.990695 H        1 UNL1     0.0280
     99 H         4.637328   -8.925054   0.242564 H        1 UNL1     0.0280
     100 H         8.15614   -7.148434   2.58096 H        1 UNL1     0.2922
     101 H         3.142076   -0.137145   -3.819653 H        1 UNL1     0.0236
     102 H         4.724295   -1.008238   -3.757679 H        1 UNL1     0.0236
     103 H         4.63357   0.715877   -3.571412 H        1 UNL1     0.0236
     104 H         2.564321   1.60193   -2.951151 H        1 UNL1     0.2098
     105 H         -0.280214   1.648204   -0.464427 H        1 UNL1     0.0234
     106 H         -1.465941   0.346649   -0.76626 H        1 UNL1     0.0234
     107 H         0.0   0.0   0.0 H        1 UNL1     0.0234
     108 H         1.002327   -1.820199   -3.47736 H        1 UNL1     0.2098
     109 H         -1.195388   -1.277843   1.452926 H        1 UNL1     0.0234
     110 H         -0.28536   -2.810519   1.264363 H        1 UNL1     0.0234
     111 H         0.000508   -1.486062   0.190613 H        1 UNL1     0.0234
     112 H         -5.146593   -0.623612   -2.695366 H        1 UNL1     0.0342
     113 H         -5.563905   1.109032   -2.446299 H        1 UNL1     0.0342
     114 H         -3.884355   0.62067   -2.688344 H        1 UNL1     0.0342
     115 H         -3.458886   -1.669577   -4.464091 H        1 UNL1     0.0234
     116 H         -2.261642   -2.926852   -4.137517 H        1 UNL1     0.0234
     117 H         -3.767293   -2.774653   -3.208271 H        1 UNL1     0.0234
     118 H         0.776684   -6.520811   1.140983 H        1 UNL1     0.0309
     119 H         2.063115   -5.888267   2.214782 H        1 UNL1     0.0309
     120 H         0.907111   -4.82674   1.44085 H        1 UNL1     0.0309
     121 H         -3.799457   -4.045058   -2.521717 H        1 UNL1     0.0524
     122 H         -2.956281   -5.128494   -3.636201 H        1 UNL1     0.0524
     123 H         -3.099856   -5.571044   -1.916528 H        1 UNL1     0.0524
@<TRIPOS>BOND
     1     1     2    1
     2     1    42    1
     3     2     3    2
     4     3     4    1
     5     4     5    2
     6     5     7    1
     7     6    75    1
     8     6    76    1
     9     6    77    1
    10     7     9   am
    11     9    10    1
    12    10    11    2
    13    10    43    1
    14    11    14    1
    15    11    15    1
    16    12    13   ar
    17    12    27   ar
    18    12    43    1
    19    13    14    1
    20    13    30   ar
    21    14    17    2
    22    15    16    1
    23    16    17    1
    24    16    18    1
    25    16    22    1
    26    18    19    1
    27    19    20    1
    28    20    21    1
    29    21    22    1
    30    23    24    1
    31    23    88    1
    32    23    89    1
    33    24    25    1
    34    24    26    1
    35    24    90    1
    36    25    91    1
    37    25    92    1
    38    25    93    1
    39    26    94    1
    40    26    95    1
    41    26    96    1
    42    27    28   ar
    43    28    29   ar
    44    29    30   ar
    45    29    31    1
    46    30    33    1
    47    31    32    1
    48    32    33    1
    49    32    35    1
    50    34    97    1
    51    34    98    1
    52    34    99    1
    53    35    61    1
    54    36    37    1
    55    36    60    1
    56    37    38    1
    57    38    39    1
    58    39    40    1
    59    40    41    1
    60    41    42    1
    61    45   100    1
    62    47   101    1
    63    47   102    1
    64    47   103    1
    65    48   104    1
    66    49   105    1
    67    49   106    1
    68    49   107    1
    69    50   108    1
    70    51    59    1
    71    52   109    1
    72    52   110    1
    73    52   111    1
    74    53    54    1
    75    54    55    2
    76    54    56    1
    77    56   112    1
    78    56   113    1
    79    56   114    1
    80    57   115    1
    81    57   116    1
    82    57   117    1
    83    58   118    1
    84    58   119    1
    85    58   120    1
    86    59   121    1
    87    59   122    1
    88    59   123    1
    89    60    61    2
    90     1    47    1
    91     1    62    1
    92     2    63    1
    93     3    64    1
    94     4    65    1
    95     5     6    1
    96     7     8    2
    97     9    78    1
    98    15    79    1
    99    18    80    1
   100    18    81    1
   101    19    82    1
   102    19    83    1
   103    20    23    1
   104    21    84    1
   105    21    85    1
   106    22    86    1
   107    22    87    1
   108    27    45    1
   109    28    34    1
   110    32    58    1
   111    33    46    2
   112    36    51    1
   113    36    66    1
   114    37    52    1
   115    37    67    1
   116    38    53    1
   117    38    68    1
   118    42    48    1
   119    42    72    1
   120    43    44    2
   121    60    73    1
   122    61    74    1
   123    39    69    1
   124    39    57    1
   125    40    70    1
   126    40    50    1
   127    41    71    1
   128    41    49    1
