@<TRIPOS>MOLECULE
*****
 123 128 0 0 0
SMALL
GASTEIGER

@<TRIPOS>ATOM
     1 C         -1.19096   3.971165   -3.572901 C.3        1 UNL1     0.0009
     2 C         -0.543395   5.457502   -4.472067 C.2        1 UNL1     -0.0787
     3 C         -0.475869   6.89409   -4.638501 C.2        1 UNL1     -0.0649
     4 C         0.502294   7.773281   -5.704605 C.2        1 UNL1     -0.0542
     5 C         1.075117   9.039772   -5.978377 C.2        1 UNL1     0.0115
     6 C         1.065619   10.538259   -5.568779 C.3        1 UNL1     -0.0348
     7 C         2.314457   9.128514   -6.994817 C.2        1 UNL1     0.2441
     8 O         2.199231   9.503678   -8.153481 O.2        1 UNL1     -0.2702
     9 N         3.578914   8.997533   -6.394697 N.am        1 UNL1     -0.2772
     10 C         3.942092   7.672214   -6.324326 C.2        1 UNL1     0.1049
     11 C         3.458787   6.989765   -5.302121 C.2        1 UNL1     0.0801
     12 C         4.102265   5.584076   -7.692303 C.ar        1 UNL1     0.0753
     13 C         3.386   4.932248   -6.638409 C.ar        1 UNL1     0.0305
     14 C         3.157111   5.584789   -5.351221 C.2        1 UNL1     0.0924
     15 N         2.834177   7.421578   -4.1931 N.pl3        1 UNL1     -0.3170
     16 C         2.665609   6.293347   -3.316212 C.3        1 UNL1     0.1275
     17 N         2.607568   5.101731   -4.240553 N.2        1 UNL1     -0.2557
     18 C         3.956098   6.145972   -2.515824 C.3        1 UNL1     0.0016
     19 C         4.238656   7.458662   -1.802665 C.3        1 UNL1     0.0026
     20 N         3.113988   7.768945   -0.930957 N.3        1 UNL1     -0.3018
     21 C         1.816471   7.869961   -1.602235 C.3        1 UNL1     0.0026
     22 C         1.550813   6.539122   -2.308059 C.3        1 UNL1     0.0016
     23 C         3.406627   8.831172   0.01068 C.3        1 UNL1     0.0012
     24 C         3.136572   8.364695   1.449856 C.3        1 UNL1     -0.0339
     25 C         2.485011   9.476551   2.288486 C.3        1 UNL1     -0.0615
     26 C         2.289644   7.103996   1.438412 C.3        1 UNL1     -0.0615
     27 C         4.421321   4.913248   -8.870569 C.ar        1 UNL1     0.1347
     28 C         4.113333   3.582908   -9.092806 C.ar        1 UNL1     0.0342
     29 C         3.365378   2.97567   -8.061792 C.ar        1 UNL1     0.1435
     30 C         3.007206   3.645762   -6.891361 C.ar        1 UNL1     0.0774
     31 O         3.083206   1.654665   -8.079986 O.3        1 UNL1     -0.4436
     32 C         2.761651   1.333724   -6.718196 C.3        1 UNL1     0.3143
     33 C         2.329919   2.645042   -6.093484 C.2        1 UNL1     0.2504
     34 C         4.638635   2.73188   -10.215262 C.3        1 UNL1     -0.0327
     35 O         1.60864   0.483277   -6.741831 O.2        1 UNL1     -0.4528
     36 C         1.903726   -1.754974   -3.690398 C.3        1 UNL1     0.0854
     37 C         2.029099   -1.35515   -2.16989 C.3        1 UNL1     0.0236
     38 C         0.924808   -2.006464   -1.206523 C.3        1 UNL1     0.1131
     39 C         -0.607828   -1.897167   -1.582488 C.3        1 UNL1     0.0200
     40 C         -1.239174   -0.459565   -2.145639 C.3        1 UNL1     0.0661
     41 C         -1.03457   1.064119   -1.428606 C.3        1 UNL1     0.0091
     42 C         -0.933923   2.731917   -2.186049 C.3        1 UNL1     0.0661
     43 C         4.572431   6.971104   -7.452807 C.2        1 UNL1     0.2131
     44 O         5.491066   7.485458   -8.064597 O.2        1 UNL1     -0.2851
     45 O         5.079885   5.633608   -9.86496 O.3        1 UNL1     -0.5056
     46 O         1.57847   2.824281   -5.161254 O.2        1 UNL1     -0.2836
     47 C         -2.673287   3.713122   -3.955134 C.3        1 UNL1     -0.0566
     48 O         -1.893699   3.3458   -1.23679 O.3        1 UNL1     -0.3909
     49 C         0.075436   0.976673   -0.405017 C.3        1 UNL1     -0.0577
     50 O         -1.084116   -0.358885   -3.546904 O.3        1 UNL1     -0.3910
     51 O         0.74967   -2.484074   -4.042534 O.3        1 UNL1     -0.3753
     52 C         2.519675   0.119137   -1.994498 C.3        1 UNL1     -0.0564
     53 O         1.263944   -1.903178   0.251779 O.3        1 UNL1     -0.4608
     54 C         0.377742   -2.05063   1.28659 C.2        1 UNL1     0.3042
     55 O         -0.480743   -1.249736   1.65457 O.2        1 UNL1     -0.2512
     56 C         0.475355   -3.381242   1.976995 C.3        1 UNL1     0.0332
     57 C         -1.013125   -3.240599   -2.350018 C.3        1 UNL1     -0.0567
     58 C         4.080587   0.874946   -6.053772 C.3        1 UNL1     0.0210
     59 C         0.006167   -2.999153   -2.939011 C.3        1 UNL1     0.0372
     60 C         2.00421   -0.621013   -4.649145 C.2        1 UNL1     -0.0208
     61 C         1.268601   -0.328795   -5.722567 C.2        1 UNL1     0.0882
     62 H         -0.583606   3.334424   -4.227419 H        1 UNL1     0.0365
     63 H         0.021275   4.979518   -5.275279 H        1 UNL1     0.0576
     64 H         -0.96328   7.575116   -3.937259 H        1 UNL1     0.0615
     65 H         0.87275   7.017159   -6.402119 H        1 UNL1     0.0622
     66 H         2.780077   -2.39008   -3.88196 H        1 UNL1     0.0645
     67 H         2.945692   -1.86932   -1.832183 H        1 UNL1     0.0362
     68 H         1.179731   -3.070384   -1.327403 H        1 UNL1     0.0741
     69 H         -1.198003   -2.083913   -0.69523 H        1 UNL1     0.0359
     70 H         -2.318771   -0.655454   -2.00018 H        1 UNL1     0.0600
     71 H         -1.929451   1.092566   -0.776427 H        1 UNL1     0.0348
     72 H         -1.408046   2.085204   -2.938568 H        1 UNL1     0.0602
     73 H         2.885878   -0.066529   -4.443095 H        1 UNL1     0.0628
     74 H         0.322163   -0.810129   -5.971182 H        1 UNL1     0.1022
     75 H         2.100866   10.88853   -5.339412 H        1 UNL1     0.0279
     76 H         0.74143   11.246629   -6.327846 H        1 UNL1     0.0279
     77 H         0.559671   10.713309   -4.608011 H        1 UNL1     0.0279
     78 H         3.544663   9.356725   -5.442917 H        1 UNL1     0.1553
     79 H         2.880814   8.366959   -3.859915 H        1 UNL1     0.1484
     80 H         3.842765   5.319614   -1.803746 H        1 UNL1     0.0317
     81 H         4.794414   5.883315   -3.169956 H        1 UNL1     0.0317
     82 H         4.425435   8.276516   -2.5141 H        1 UNL1     0.0428
     83 H         5.163822   7.332036   -1.239563 H        1 UNL1     0.0428
     84 H         0.978246   8.024266   -0.915665 H        1 UNL1     0.0428
     85 H         1.771618   8.736031   -2.276941 H        1 UNL1     0.0428
     86 H         0.542501   6.601319   -2.673334 H        1 UNL1     0.0317
     87 H         1.504455   5.727279   -1.571948 H        1 UNL1     0.0317
     88 H         4.470862   9.084886   -0.080582 H        1 UNL1     0.0429
     89 H         2.838007   9.74016   -0.224234 H        1 UNL1     0.0429
     90 H         4.086127   8.083362   1.920398 H        1 UNL1     0.0308
     91 H         3.180454   10.303198   2.462028 H        1 UNL1     0.0233
     92 H         1.589394   9.859254   1.793495 H        1 UNL1     0.0233
     93 H         2.161292   9.120908   3.274164 H        1 UNL1     0.0233
     94 H         2.012005   6.826201   2.460949 H        1 UNL1     0.0233
     95 H         1.368898   7.277534   0.874431 H        1 UNL1     0.0233
     96 H         2.827671   6.26591   0.98663 H        1 UNL1     0.0233
     97 H         5.030987   3.330968   -11.031585 H        1 UNL1     0.0280
     98 H         5.465243   2.085465   -9.892579 H        1 UNL1     0.0280
     99 H         3.82669   2.099402   -10.609992 H        1 UNL1     0.0280
     100 H         4.71245   5.538149   -10.726064 H        1 UNL1     0.2922
     101 H         -3.154931   4.655131   -4.216467 H        1 UNL1     0.0236
     102 H         -3.225374   3.170346   -3.188598 H        1 UNL1     0.0236
     103 H         -2.765094   3.091076   -4.861128 H        1 UNL1     0.0236
     104 H         -2.786512   3.025092   -1.471315 H        1 UNL1     0.2098
     105 H         1.075407   1.090056   -0.816129 H        1 UNL1     0.0234
     106 H         -0.052379   1.624896   0.461815 H        1 UNL1     0.0234
     107 H         0.0   0.0   0.0 H        1 UNL1     0.0234
     108 H         -0.125748   -0.319697   -3.730652 H        1 UNL1     0.2098
     109 H         1.68475   0.824661   -1.881146 H        1 UNL1     0.0234
     110 H         3.220095   0.243462   -1.161613 H        1 UNL1     0.0234
     111 H         3.084058   0.464839   -2.870802 H        1 UNL1     0.0234
     112 H         1.518614   -3.710098   2.005459 H        1 UNL1     0.0342
     113 H         0.046232   -3.355948   2.977523 H        1 UNL1     0.0342
     114 H         -0.093195   -4.115176   1.38941 H        1 UNL1     0.0342
     115 H         -1.938558   -3.116748   -2.929175 H        1 UNL1     0.0234
     116 H         -0.2456   -3.610684   -3.032655 H        1 UNL1     0.0234
     117 H         -1.293959   -4.066101   -1.673542 H        1 UNL1     0.0234
     118 H         4.895587   1.604737   -6.20272 H        1 UNL1     0.0309
     119 H         3.974125   0.670399   -4.983711 H        1 UNL1     0.0309
     120 H         4.478859   -0.042956   -6.4998 H        1 UNL1     0.0309
     121 H         0.63756   -2.927395   -2.053828 H        1 UNL1     0.0524
     122 H         -0.908805   -2.415913   -2.742302 H        1 UNL1     0.0524
     123 H         -0.267956   -4.034451   -3.120972 H        1 UNL1     0.0524
@<TRIPOS>BOND
     1     1     2    1
     2     1    42    1
     3     2     3    2
     4     3     4    1
     5     4     5    2
     6     5     7    1
     7     6    75    1
     8     6    76    1
     9     6    77    1
    10     7     9   am
    11     9    10    1
    12    10    11    2
    13    10    43    1
    14    11    14    1
    15    11    15    1
    16    12    13   ar
    17    12    27   ar
    18    12    43    1
    19    13    14    1
    20    13    30   ar
    21    14    17    2
    22    15    16    1
    23    16    17    1
    24    16    18    1
    25    16    22    1
    26    18    19    1
    27    19    20    1
    28    20    21    1
    29    21    22    1
    30    23    24    1
    31    23    88    1
    32    23    89    1
    33    24    25    1
    34    24    26    1
    35    24    90    1
    36    25    91    1
    37    25    92    1
    38    25    93    1
    39    26    94    1
    40    26    95    1
    41    26    96    1
    42    27    28   ar
    43    28    29   ar
    44    29    30   ar
    45    29    31    1
    46    30    33    1
    47    31    32    1
    48    32    33    1
    49    32    35    1
    50    34    97    1
    51    34    98    1
    52    34    99    1
    53    35    61    1
    54    36    37    1
    55    36    60    1
    56    37    38    1
    57    38    39    1
    58    39    40    1
    59    40    41    1
    60    41    42    1
    61    45   100    1
    62    47   101    1
    63    47   102    1
    64    47   103    1
    65    48   104    1
    66    49   105    1
    67    49   106    1
    68    49   107    1
    69    50   108    1
    70    51    59    1
    71    52   109    1
    72    52   110    1
    73    52   111    1
    74    53    54    1
    75    54    55    2
    76    54    56    1
    77    56   112    1
    78    56   113    1
    79    56   114    1
    80    57   115    1
    81    57   116    1
    82    57   117    1
    83    58   118    1
    84    58   119    1
    85    58   120    1
    86    59   121    1
    87    59   122    1
    88    59   123    1
    89    60    61    2
    90     1    47    1
    91     1    62    1
    92     2    63    1
    93     3    64    1
    94     4    65    1
    95     5     6    1
    96     7     8    2
    97     9    78    1
    98    15    79    1
    99    18    80    1
   100    18    81    1
   101    19    82    1
   102    19    83    1
   103    20    23    1
   104    21    84    1
   105    21    85    1
   106    22    86    1
   107    22    87    1
   108    27    45    1
   109    28    34    1
   110    32    58    1
   111    33    46    2
   112    36    51    1
   113    36    66    1
   114    37    52    1
   115    37    67    1
   116    38    53    1
   117    38    68    1
   118    42    48    1
   119    42    72    1
   120    43    44    2
   121    60    73    1
   122    61    74    1
   123    39    69    1
   124    39    57    1
   125    40    70    1
   126    40    50    1
   127    41    71    1
   128    41    49    1
