@<TRIPOS>MOLECULE
*****
 123 128 0 0 0
SMALL
GASTEIGER

@<TRIPOS>ATOM
     1 C         2.428026   2.889879   -3.339668 C.3        1 UNL1     0.0009
     2 C         2.655144   2.92415   -5.179309 C.2        1 UNL1     -0.0787
     3 C         3.513953   2.828021   -6.340882 C.2        1 UNL1     -0.0649
     4 C         3.061751   2.830656   -7.972404 C.2        1 UNL1     -0.0542
     5 C         3.460413   2.489085   -9.28826 C.2        1 UNL1     0.0115
     6 C         4.660955   2.020916   -10.155923 C.3        1 UNL1     -0.0348
     7 C         2.341435   2.37223   -10.433345 C.2        1 UNL1     0.2441
     8 O         2.151296   3.244766   -11.26944 O.2        1 UNL1     -0.2702
     9 N         1.773142   1.0941   -10.573264 N.am        1 UNL1     -0.2772
     10 C         0.693498   0.953875   -9.731821 C.2        1 UNL1     0.1049
     11 C         0.967959   0.623369   -8.482958 C.2        1 UNL1     0.0801
     12 C         -1.41819   2.083561   -9.009381 C.ar        1 UNL1     0.0753
     13 C         -0.971792   1.884777   -7.664085 C.ar        1 UNL1     0.0305
     14 C         0.17324   1.030891   -7.356138 C.2        1 UNL1     0.0924
     15 N         2.118004   0.193605   -7.93594 N.pl3        1 UNL1     -0.3170
     16 C         1.841232   -0.19259   -6.577815 C.3        1 UNL1     0.1275
     17 N         0.660722   0.657655   -6.176315 N.2        1 UNL1     -0.2557
     18 C         1.334987   -1.631448   -6.611101 C.3        1 UNL1     0.0016
     19 C         2.371887   -2.495761   -7.310666 C.3        1 UNL1     0.0026
     20 N         3.629395   -2.399473   -6.582359 N.3        1 UNL1     -0.3018
     21 C         4.165447   -1.0438   -6.443909 C.3        1 UNL1     0.0026
     22 C         3.109553   -0.194124   -5.734661 C.3        1 UNL1     0.0016
     23 C         4.59181   -3.406279   -6.983288 C.3        1 UNL1     0.0012
     24 C         4.146063   -4.797597   -6.50653 C.3        1 UNL1     -0.0339
     25 C         5.351043   -5.677957   -6.136333 C.3        1 UNL1     -0.0615
     26 C         3.174089   -4.664142   -5.347118 C.3        1 UNL1     -0.0615
     27 C         -2.580588   2.799494   -9.28577 C.ar        1 UNL1     0.1347
     28 C         -3.397573   3.327778   -8.302153 C.ar        1 UNL1     0.0342
     29 C         -2.912443   3.161794   -6.987519 C.ar        1 UNL1     0.1435
     30 C         -1.730966   2.478201   -6.697639 C.ar        1 UNL1     0.0774
     31 O         -3.648176   3.523708   -5.91387 O.3        1 UNL1     -0.4436
     32 C         -3.07434   2.794479   -4.818512 C.3        1 UNL1     0.3143
     33 C         -1.656717   2.479741   -5.251523 C.2        1 UNL1     0.2504
     34 C         -4.778734   3.884574   -8.508242 C.3        1 UNL1     -0.0327
     35 O         -2.981124   3.696168   -3.708773 O.2        1 UNL1     -0.4528
     36 C         -3.321453   1.55255   -0.594745 C.3        1 UNL1     0.0854
     37 C         -2.453017   0.319053   -0.134497 C.3        1 UNL1     0.0236
     38 C         -1.817712   0.449421   1.332178 C.3        1 UNL1     0.1131
     39 C         -1.007105   1.750086   1.723914 C.3        1 UNL1     0.0200
     40 C         0.088774   2.415946   0.657088 C.3        1 UNL1     0.0661
     41 C         1.316076   1.576724   -0.159641 C.3        1 UNL1     0.0091
     42 C         2.050736   1.858474   -1.816836 C.3        1 UNL1     0.0661
     43 C         -0.650747   1.425839   -10.095978 C.2        1 UNL1     0.2131
     44 O         -1.114057   1.18338   -11.195658 O.2        1 UNL1     -0.2851
     45 O         -2.920338   2.986264   -10.624098 O.3        1 UNL1     -0.5056
     46 O         -0.680977   2.294175   -4.559171 O.2        1 UNL1     -0.2836
     47 C         2.95766   4.204553   -2.70634 C.3        1 UNL1     -0.0566
     48 O         3.450822   1.750488   -1.340164 O.3        1 UNL1     -0.3909
     49 C         1.055296   0.091799   -0.039275 C.3        1 UNL1     -0.0577
     50 O         -0.553479   3.31307   -0.226316 O.3        1 UNL1     -0.3910
     51 O         -3.290633   2.678348   0.253228 O.3        1 UNL1     -0.3753
     52 C         -1.666868   -0.316499   -1.32739 C.3        1 UNL1     -0.0564
     53 O         -1.303328   -0.849057   1.881442 O.3        1 UNL1     -0.4608
     54 C         -0.174393   -0.998361   2.643769 C.2        1 UNL1     0.3042
     55 O         0.922349   -1.420605   2.279482 O.2        1 UNL1     -0.2512
     56 C         -0.338377   -0.525733   4.06026 C.3        1 UNL1     0.0332
     57 C         -2.016532   2.74082   2.470693 C.3        1 UNL1     -0.0567
     58 C         -3.868126   1.471732   -4.710004 C.3        1 UNL1     0.0210
     59 C         -4.488676   2.903096   0.994879 C.3        1 UNL1     0.0372
     60 C         -3.036865   2.043592   -1.970626 C.2        1 UNL1     -0.0208
     61 C         -2.88006   3.285842   -2.429943 C.2        1 UNL1     0.0882
     62 H         1.350265   3.026683   -3.489425 H        1 UNL1     0.0365
     63 H         1.644262   3.17874   -5.504536 H        1 UNL1     0.0576
     64 H         4.571675   2.570623   -6.251009 H        1 UNL1     0.0615
     65 H         2.023748   3.173753   -7.954582 H        1 UNL1     0.0622
     66 H         -4.352026   1.171207   -0.61806 H        1 UNL1     0.0645
     67 H         -3.191638   -0.487177   0.017133 H        1 UNL1     0.0362
     68 H         -2.7412   0.490149   1.929701 H        1 UNL1     0.0741
     69 H         -0.393879   1.530983   2.587833 H        1 UNL1     0.0359
     70 H         0.656377   3.067538   1.348691 H        1 UNL1     0.0600
     71 H         2.15054   1.709291   0.556635 H        1 UNL1     0.0348
     72 H         1.559936   2.802307   -1.538251 H        1 UNL1     0.0602
     73 H         -3.089942   1.229402   -2.649983 H        1 UNL1     0.0628
     74 H         -2.758138   4.166167   -1.797962 H        1 UNL1     0.1022
     75 H         5.568525   2.631675   -9.931591 H        1 UNL1     0.0279
     76 H         5.014236   1.005984   -9.988071 H        1 UNL1     0.0279
     77 H         4.518708   2.229121   -11.226491 H        1 UNL1     0.0279
     78 H         2.456851   0.385637   -10.315001 H        1 UNL1     0.1553
     79 H         2.877449   -0.191654   -8.466743 H        1 UNL1     0.1484
     80 H         1.157144   -1.971738   -5.583803 H        1 UNL1     0.0317
     81 H         0.374492   -1.696328   -7.13349 H        1 UNL1     0.0317
     82 H         2.501   -2.204834   -8.363568 H        1 UNL1     0.0428
     83 H         1.990034   -3.517051   -7.324962 H        1 UNL1     0.0428
     84 H         5.0669   -0.989588   -5.825641 H        1 UNL1     0.0428
     85 H         4.479847   -0.627793   -7.411074 H        1 UNL1     0.0428
     86 H         3.584178   0.748105   -5.532369 H        1 UNL1     0.0317
     87 H         2.912699   -0.59905   -4.734471 H        1 UNL1     0.0317
     88 H         4.642894   -3.412396   -8.079941 H        1 UNL1     0.0429
     89 H         5.597604   -3.165204   -6.615817 H        1 UNL1     0.0429
     90 H         3.587192   -5.290832   -7.310642 H        1 UNL1     0.0308
     91 H         6.068822   -5.130265   -5.51833 H        1 UNL1     0.0233
     92 H         5.02563   -6.572662   -5.600405 H        1 UNL1     0.0233
     93 H         5.8966   -6.031967   -7.019441 H        1 UNL1     0.0233
     94 H         3.153649   -5.590451   -4.76285 H        1 UNL1     0.0233
     95 H         3.492025   -3.85446   -4.684325 H        1 UNL1     0.0233
     96 H         2.159902   -4.454879   -5.69869 H        1 UNL1     0.0233
     97 H         -4.761394   4.830257   -9.041734 H        1 UNL1     0.0280
     98 H         -5.410346   3.214096   -9.105554 H        1 UNL1     0.0280
     99 H         -5.260355   4.048281   -7.530318 H        1 UNL1     0.0280
     100 H         -2.21849   3.301732   -11.165866 H        1 UNL1     0.2922
     101 H         2.119029   4.841979   -2.426981 H        1 UNL1     0.0236
     102 H         3.675077   4.72637   -3.338797 H        1 UNL1     0.0236
     103 H         3.496746   4.021406   -1.761864 H        1 UNL1     0.0236
     104 H         3.793463   0.881059   -1.625927 H        1 UNL1     0.2098
     105 H         1.40926   -0.496136   -0.882396 H        1 UNL1     0.0234
     106 H         1.387097   -0.35429   0.898189 H        1 UNL1     0.0234
     107 H         0.0   0.0   0.0 H        1 UNL1     0.0234
     108 H         -1.060497   3.944586   0.319476 H        1 UNL1     0.2098
     109 H         -2.336311   -0.690137   -2.11476 H        1 UNL1     0.0234
     110 H         -0.92801   0.362544   -1.766402 H        1 UNL1     0.0234
     111 H         -1.073925   -1.182958   -1.005498 H        1 UNL1     0.0234
     112 H         0.601376   -0.652934   4.60618 H        1 UNL1     0.0342
     113 H         -0.68279   0.506113   4.110432 H        1 UNL1     0.0342
     114 H         -1.097668   -1.154078   4.545878 H        1 UNL1     0.0342
     115 H         -1.765331   2.854398   3.534265 H        1 UNL1     0.0234
     116 H         -2.060572   3.740994   2.035077 H        1 UNL1     0.0234
     117 H         -3.047302   2.351912   2.535541 H        1 UNL1     0.0234
     118 H         -4.941624   1.613538   -4.925639 H        1 UNL1     0.0309
     119 H         -3.474603   0.680316   -5.355761 H        1 UNL1     0.0309
     120 H         -3.86654   1.062702   -3.693738 H        1 UNL1     0.0309
     121 H         -4.538852   3.966833   1.225756 H        1 UNL1     0.0524
     122 H         -5.392446   2.645648   0.417854 H        1 UNL1     0.0524
     123 H         -4.47796   2.320628   1.911782 H        1 UNL1     0.0524
@<TRIPOS>BOND
     1     1     2    1
     2     1    42    1
     3     2     3    2
     4     3     4    1
     5     4     5    2
     6     5     7    1
     7     6    75    1
     8     6    76    1
     9     6    77    1
    10     7     9   am
    11     9    10    1
    12    10    11    2
    13    10    43    1
    14    11    14    1
    15    11    15    1
    16    12    13   ar
    17    12    27   ar
    18    12    43    1
    19    13    14    1
    20    13    30   ar
    21    14    17    2
    22    15    16    1
    23    16    17    1
    24    16    18    1
    25    16    22    1
    26    18    19    1
    27    19    20    1
    28    20    21    1
    29    21    22    1
    30    23    24    1
    31    23    88    1
    32    23    89    1
    33    24    25    1
    34    24    26    1
    35    24    90    1
    36    25    91    1
    37    25    92    1
    38    25    93    1
    39    26    94    1
    40    26    95    1
    41    26    96    1
    42    27    28   ar
    43    28    29   ar
    44    29    30   ar
    45    29    31    1
    46    30    33    1
    47    31    32    1
    48    32    33    1
    49    32    35    1
    50    34    97    1
    51    34    98    1
    52    34    99    1
    53    35    61    1
    54    36    37    1
    55    36    60    1
    56    37    38    1
    57    38    39    1
    58    39    40    1
    59    40    41    1
    60    41    42    1
    61    45   100    1
    62    47   101    1
    63    47   102    1
    64    47   103    1
    65    48   104    1
    66    49   105    1
    67    49   106    1
    68    49   107    1
    69    50   108    1
    70    51    59    1
    71    52   109    1
    72    52   110    1
    73    52   111    1
    74    53    54    1
    75    54    55    2
    76    54    56    1
    77    56   112    1
    78    56   113    1
    79    56   114    1
    80    57   115    1
    81    57   116    1
    82    57   117    1
    83    58   118    1
    84    58   119    1
    85    58   120    1
    86    59   121    1
    87    59   122    1
    88    59   123    1
    89    60    61    2
    90     1    47    1
    91     1    62    1
    92     2    63    1
    93     3    64    1
    94     4    65    1
    95     5     6    1
    96     7     8    2
    97     9    78    1
    98    15    79    1
    99    18    80    1
   100    18    81    1
   101    19    82    1
   102    19    83    1
   103    20    23    1
   104    21    84    1
   105    21    85    1
   106    22    86    1
   107    22    87    1
   108    27    45    1
   109    28    34    1
   110    32    58    1
   111    33    46    2
   112    36    51    1
   113    36    66    1
   114    37    52    1
   115    37    67    1
   116    38    53    1
   117    38    68    1
   118    42    48    1
   119    42    72    1
   120    43    44    2
   121    60    73    1
   122    61    74    1
   123    39    69    1
   124    39    57    1
   125    40    70    1
   126    40    50    1
   127    41    71    1
   128    41    49    1
