@<TRIPOS>MOLECULE
*****
 123 128 0 0 0
SMALL
GASTEIGER

@<TRIPOS>ATOM
     1 C         -2.453927   -4.895466   -0.029359 C.3        1 UNL1     0.0009
     2 C         -2.542091   -6.565356   0.771097 C.2        1 UNL1     -0.0787
     3 C         -2.243199   -7.98188   0.758037 C.2        1 UNL1     -0.0649
     4 C         -2.518482   -9.11482   1.985646 C.2        1 UNL1     -0.0542
     5 C         -2.157847   -10.38731   2.493376 C.2        1 UNL1     0.0115
     6 C         -1.372318   -11.689781   2.177406 C.3        1 UNL1     -0.0348
     7 C         -2.51343   -10.744896   4.017411 C.2        1 UNL1     0.2441
     8 O         -3.456719   -11.457946   4.330925 O.2        1 UNL1     -0.2702
     9 N         -1.519791   -10.400766   4.950368 N.am        1 UNL1     -0.2772
     10 C         -1.695811   -9.106858   5.384121 C.2        1 UNL1     0.1049
     11 C         -1.201723   -8.16018   4.607011 C.2        1 UNL1     0.0801
     12 C         -3.422821   -7.530102   6.272159 C.ar        1 UNL1     0.0753
     13 C         -2.986483   -6.609729   5.266608 C.ar        1 UNL1     0.0305
     14 C         -1.773078   -6.846148   4.487633 C.2        1 UNL1     0.0924
     15 N         -0.366706   -8.252165   3.557814 N.pl3        1 UNL1     -0.3170
     16 C         -0.000653   -6.916065   3.169105 C.3        1 UNL1     0.1275
     17 N         -1.171246   -6.064341   3.595723 N.2        1 UNL1     -0.2557
     18 C         1.172529   -6.494643   4.048736 C.3        1 UNL1     0.0016
     19 C         2.285644   -7.519348   3.898593 C.3        1 UNL1     0.0026
     20 N         2.677525   -7.582384   2.497349 N.3        1 UNL1     -0.3018
     21 C         1.600108   -7.920593   1.565064 C.3        1 UNL1     0.0026
     22 C         0.494929   -6.875883   1.729546 C.3        1 UNL1     0.0016
     23 C         3.920434   -8.298809   2.291054 C.3        1 UNL1     0.0012
     24 C         4.64994   -8.507665   3.62745 C.3        1 UNL1     -0.0339
     25 C         3.98991   -9.618467   4.460839 C.3        1 UNL1     -0.0615
     26 C         6.120566   -8.794342   3.378742 C.3        1 UNL1     -0.0615
     27 C         -4.510583   -7.240507   7.092541 C.ar        1 UNL1     0.1347
     28 C         -5.213106   -6.050395   7.028168 C.ar        1 UNL1     0.0342
     29 C         -4.796512   -5.180363   5.998286 C.ar        1 UNL1     0.1435
     30 C         -3.731564   -5.47278   5.145292 C.ar        1 UNL1     0.0774
     31 O         -5.308852   -3.936314   5.876394 O.3        1 UNL1     -0.4436
     32 C         -4.350065   -3.22583   5.078389 C.3        1 UNL1     0.3143
     33 C         -3.602665   -4.296953   4.310078 C.2        1 UNL1     0.2504
     34 C         -6.221303   -5.566232   8.03277 C.3        1 UNL1     -0.0327
     35 O         -5.082673   -2.456864   4.116501 O.2        1 UNL1     -0.4528
     36 C         -2.963887   0.611183   3.405218 C.3        1 UNL1     0.0854
     37 C         -1.47809   0.696693   2.883089 C.3        1 UNL1     0.0236
     38 C         -1.276918   1.577728   1.558306 C.3        1 UNL1     0.1131
     39 C         -2.190679   1.314619   0.294152 C.3        1 UNL1     0.0200
     40 C         -2.518071   -0.243925   -0.202028 C.3        1 UNL1     0.0661
     41 C         -1.371985   -1.470622   -0.445562 C.3        1 UNL1     0.0091
     42 C         -1.505579   -3.28612   -0.218575 C.3        1 UNL1     0.0661
     43 C         -2.623386   -8.764213   6.472492 C.2        1 UNL1     0.2131
     44 O         -2.634159   -9.413298   7.502691 O.2        1 UNL1     -0.2851
     45 O         -4.898753   -8.209713   8.015255 O.3        1 UNL1     -0.5056
     46 O         -3.045439   -4.205926   3.239066 O.2        1 UNL1     -0.2836
     47 C         -3.459182   -4.80925   -1.209194 C.3        1 UNL1     -0.0566
     48 O         -0.89187   -3.609834   -1.529181 O.3        1 UNL1     -0.3909
     49 C         -0.060689   -1.043623   0.175461 C.3        1 UNL1     -0.0577
     50 O         -3.642162   -0.761546   0.480768 O.3        1 UNL1     -0.3910
     51 O         -3.94682   1.164643   2.559668 O.3        1 UNL1     -0.3753
     52 C         -0.700764   -0.63941   3.118765 C.3        1 UNL1     -0.0564
     53 O         0.155386   1.932896   1.285018 O.3        1 UNL1     -0.4608
     54 C         1.199075   1.752902   2.154642 C.2        1 UNL1     0.3042
     55 O         1.13567   1.567971   3.369393 O.2        1 UNL1     -0.2512
     56 C         2.543554   1.733731   1.484776 C.3        1 UNL1     0.0332
     57 C         -3.409461   2.348477   0.35645 C.3        1 UNL1     -0.0567
     58 C         -3.373548   -2.548435   6.067873 C.3        1 UNL1     0.0210
     59 C         -5.134571   0.384627   2.430491 C.3        1 UNL1     0.0372
     60 C         -3.426817   -0.75726   3.763299 C.2        1 UNL1     -0.0208
     61 C         -4.570795   -1.383483   3.484187 C.2        1 UNL1     0.0882
     62 H         -2.960884   -4.470596   0.845394 H        1 UNL1     0.0365
     63 H         -3.149341   -6.338127   1.649781 H        1 UNL1     0.0576
     64 H         -1.634417   -8.431207   -0.029743 H        1 UNL1     0.0615
     65 H         -3.193025   -8.596264   2.672359 H        1 UNL1     0.0622
     66 H         -2.959985   1.183171   4.34376 H        1 UNL1     0.0645
     67 H         -0.963656   1.315712   3.638557 H        1 UNL1     0.0362
     68 H         -1.586923   2.561406   1.94275 H        1 UNL1     0.0741
     69 H         -1.713307   1.745141   -0.576005 H        1 UNL1     0.0359
     70 H         -2.88474   -0.044622   -1.227159 H        1 UNL1     0.0600
     71 H         -1.159377   -1.325392   -1.522903 H        1 UNL1     0.0348
     72 H         -2.537377   -2.913088   -0.293113 H        1 UNL1     0.0602
     73 H         -2.731256   -1.196838   4.434279 H        1 UNL1     0.0628
     74 H         -5.308273   -1.028392   2.763581 H        1 UNL1     0.1022
     75 H         -0.828842   -11.594058   1.206579 H        1 UNL1     0.0279
     76 H         -0.574339   -11.95455   2.867474 H        1 UNL1     0.0279
     77 H         -2.032369   -12.545476   1.972906 H        1 UNL1     0.0279
     78 H         -0.60374   -10.454231   4.509835 H        1 UNL1     0.1553
     79 H         0.21502   -9.049601   3.377196 H        1 UNL1     0.1484
     80 H         1.505311   -5.494501   3.74585 H        1 UNL1     0.0317
     81 H         0.867548   -6.419112   5.097989 H        1 UNL1     0.0317
     82 H         1.98063   -8.509057   4.269207 H        1 UNL1     0.0428
     83 H         3.11135   -7.200514   4.535465 H        1 UNL1     0.0428
     84 H         1.901895   -7.883085   0.513717 H        1 UNL1     0.0428
     85 H         1.247348   -8.951789   1.704752 H        1 UNL1     0.0428
     86 H         -0.211369   -7.075613   0.945174 H        1 UNL1     0.0317
     87 H         0.879825   -5.880298   1.477031 H        1 UNL1     0.0317
     88 H         3.681208   -9.282382   1.866026 H        1 UNL1     0.0429
     89 H         4.562591   -7.782623   1.565823 H        1 UNL1     0.0429
     90 H         4.619759   -7.574762   4.202771 H        1 UNL1     0.0308
     91 H         3.654438   -9.241349   5.431583 H        1 UNL1     0.0233
     92 H         3.137331   -10.046217   3.928159 H        1 UNL1     0.0233
     93 H         4.673906   -10.451752   4.66238 H        1 UNL1     0.0233
     94 H         6.703588   -7.870108   3.45432 H        1 UNL1     0.0233
     95 H         6.497424   -9.493108   4.130851 H        1 UNL1     0.0233
     96 H         6.281041   -9.223943   2.385938 H        1 UNL1     0.0233
     97 H         -7.199664   -5.413446   7.587017 H        1 UNL1     0.0280
     98 H         -6.371589   -6.285911   8.848081 H        1 UNL1     0.0280
     99 H         -5.883877   -4.608721   8.462202 H        1 UNL1     0.0280
     100 H         -5.1812   -7.868839   8.845707 H        1 UNL1     0.2922
     101 H         -3.6654   -3.764532   -1.440916 H        1 UNL1     0.0236
     102 H         -4.372359   -5.377877   -1.0367 H        1 UNL1     0.0236
     103 H         -3.04086   -5.225272   -2.140927 H        1 UNL1     0.0236
     104 H         -0.044716   -4.064365   -1.35396 H        1 UNL1     0.2098
     105 H         0.001453   -1.204721   1.248772 H        1 UNL1     0.0234
     106 H         0.827012   -1.439191   -0.317935 H        1 UNL1     0.0234
     107 H         0.0   0.0   0.0 H        1 UNL1     0.0234
     108 H         -4.438153   -0.427922   0.023754 H        1 UNL1     0.2098
     109 H         -0.208418   -0.666545   4.100891 H        1 UNL1     0.0234
     110 H         -1.328068   -1.529244   2.99865 H        1 UNL1     0.0234
     111 H         0.100598   -0.777032   2.380642 H        1 UNL1     0.0234
     112 H         3.2693   2.284238   2.09106 H        1 UNL1     0.0342
     113 H         2.888387   0.719826   1.28747 H        1 UNL1     0.0342
     114 H         2.452732   2.248421   0.518334 H        1 UNL1     0.0342
     115 H         -4.35485   1.850402   0.612086 H        1 UNL1     0.0234
     116 H         -3.264518   3.16323   1.068642 H        1 UNL1     0.0234
     117 H         -3.660306   2.792312   -0.622339 H        1 UNL1     0.0234
     118 H         -2.890864   -1.657443   5.629518 H        1 UNL1     0.0309
     119 H         -3.84612   -2.270156   7.015206 H        1 UNL1     0.0309
     120 H         -2.526282   -3.191848   6.329153 H        1 UNL1     0.0309
     121 H         -5.903657   1.024222   1.998309 H        1 UNL1     0.0524
     122 H         -4.998862   -0.475201   1.7535 H        1 UNL1     0.0524
     123 H         -5.452845   0.020652   3.40328 H        1 UNL1     0.0524
@<TRIPOS>BOND
     1     1     2    1
     2     1    42    1
     3     2     3    2
     4     3     4    1
     5     4     5    2
     6     5     7    1
     7     6    75    1
     8     6    76    1
     9     6    77    1
    10     7     9   am
    11     9    10    1
    12    10    11    2
    13    10    43    1
    14    11    14    1
    15    11    15    1
    16    12    13   ar
    17    12    27   ar
    18    12    43    1
    19    13    14    1
    20    13    30   ar
    21    14    17    2
    22    15    16    1
    23    16    17    1
    24    16    18    1
    25    16    22    1
    26    18    19    1
    27    19    20    1
    28    20    21    1
    29    21    22    1
    30    23    24    1
    31    23    88    1
    32    23    89    1
    33    24    25    1
    34    24    26    1
    35    24    90    1
    36    25    91    1
    37    25    92    1
    38    25    93    1
    39    26    94    1
    40    26    95    1
    41    26    96    1
    42    27    28   ar
    43    28    29   ar
    44    29    30   ar
    45    29    31    1
    46    30    33    1
    47    31    32    1
    48    32    33    1
    49    32    35    1
    50    34    97    1
    51    34    98    1
    52    34    99    1
    53    35    61    1
    54    36    37    1
    55    36    60    1
    56    37    38    1
    57    38    39    1
    58    39    40    1
    59    40    41    1
    60    41    42    1
    61    45   100    1
    62    47   101    1
    63    47   102    1
    64    47   103    1
    65    48   104    1
    66    49   105    1
    67    49   106    1
    68    49   107    1
    69    50   108    1
    70    51    59    1
    71    52   109    1
    72    52   110    1
    73    52   111    1
    74    53    54    1
    75    54    55    2
    76    54    56    1
    77    56   112    1
    78    56   113    1
    79    56   114    1
    80    57   115    1
    81    57   116    1
    82    57   117    1
    83    58   118    1
    84    58   119    1
    85    58   120    1
    86    59   121    1
    87    59   122    1
    88    59   123    1
    89    60    61    2
    90     1    47    1
    91     1    62    1
    92     2    63    1
    93     3    64    1
    94     4    65    1
    95     5     6    1
    96     7     8    2
    97     9    78    1
    98    15    79    1
    99    18    80    1
   100    18    81    1
   101    19    82    1
   102    19    83    1
   103    20    23    1
   104    21    84    1
   105    21    85    1
   106    22    86    1
   107    22    87    1
   108    27    45    1
   109    28    34    1
   110    32    58    1
   111    33    46    2
   112    36    51    1
   113    36    66    1
   114    37    52    1
   115    37    67    1
   116    38    53    1
   117    38    68    1
   118    42    48    1
   119    42    72    1
   120    43    44    2
   121    60    73    1
   122    61    74    1
   123    39    69    1
   124    39    57    1
   125    40    70    1
   126    40    50    1
   127    41    71    1
   128    41    49    1
