@<TRIPOS>MOLECULE
*****
 123 128 0 0 0
SMALL
GASTEIGER

@<TRIPOS>ATOM
     1 C         -4.856555   0.136774   -0.96139 C.3        1 UNL1     0.0009
     2 C         -6.214162   1.34069   -1.341559 C.2        1 UNL1     -0.0787
     3 C         -7.197001   2.306712   -0.897853 C.2        1 UNL1     -0.0649
     4 C         -8.19624   3.287001   -1.850171 C.2        1 UNL1     -0.0542
     5 C         -8.99123   4.459407   -1.873261 C.2        1 UNL1     0.0115
     6 C         -9.621199   5.56816   -0.986059 C.3        1 UNL1     -0.0348
     7 C         -9.385116   5.103158   -3.290099 C.2        1 UNL1     0.2441
     8 O         -10.488302   4.964592   -3.800301 O.2        1 UNL1     -0.2702
     9 N         -8.469884   6.050254   -3.781535 N.am        1 UNL1     -0.2772
     10 C         -7.487956   5.430873   -4.52012 C.2        1 UNL1     0.1049
     11 C         -6.484233   4.912912   -3.835665 C.2        1 UNL1     0.0801
     12 C         -7.138361   3.773662   -6.360981 C.ar        1 UNL1     0.0753
     13 C         -6.204655   3.123705   -5.492443 C.ar        1 UNL1     0.0305
     14 C         -5.750703   3.748453   -4.252013 C.2        1 UNL1     0.0924
     15 N         -6.148657   5.068229   -2.543461 N.pl3        1 UNL1     -0.3170
     16 C         -4.875335   4.429752   -2.34035 C.3        1 UNL1     0.1275
     17 N         -4.826956   3.342215   -3.385647 N.2        1 UNL1     -0.2557
     18 C         -3.797304   5.437538   -2.727542 C.3        1 UNL1     0.0016
     19 C         -4.001174   6.704898   -1.912788 C.3        1 UNL1     0.0026
     20 N         -3.920844   6.369364   -0.497871 N.3        1 UNL1     -0.3018
     21 C         -4.879458   5.360229   -0.042816 C.3        1 UNL1     0.0026
     22 C         -4.653756   4.094338   -0.871354 C.3        1 UNL1     0.0016
     23 C         -3.802561   7.536888   0.352741 C.3        1 UNL1     0.0012
     24 C         -4.105088   8.816153   -0.443322 C.3        1 UNL1     -0.0339
     25 C         -5.618122   9.021606   -0.623804 C.3        1 UNL1     -0.0615
     26 C         -3.454536   10.013273   0.227845 C.3        1 UNL1     -0.0615
     27 C         -7.47385   3.228177   -7.597917 C.ar        1 UNL1     0.1347
     28 C         -6.913136   2.063016   -8.089901 C.ar        1 UNL1     0.0342
     29 C         -6.033448   1.414938   -7.19698 C.ar        1 UNL1     0.1435
     30 C         -5.715586   1.930789   -5.939967 C.ar        1 UNL1     0.0774
     31 O         -5.323117   0.328593   -7.571534 O.3        1 UNL1     -0.4436
     32 C         -4.2456   0.256068   -6.625717 C.3        1 UNL1     0.3143
     33 C         -4.739386   1.005025   -5.404467 C.2        1 UNL1     0.2504
     34 C         -7.031919   1.55415   -9.499527 C.3        1 UNL1     -0.0327
     35 O         -4.105551   -1.117974   -6.244081 O.2        1 UNL1     -0.4528
     36 C         -0.433332   -1.597752   -5.41179 C.3        1 UNL1     0.0854
     37 C         0.45702   -0.835132   -4.356704 C.3        1 UNL1     0.0236
     38 C         1.201821   -1.777248   -3.293956 C.3        1 UNL1     0.1131
     39 C         0.376384   -2.864182   -2.49427 C.3        1 UNL1     0.0200
     40 C         -1.115271   -2.486956   -1.849984 C.3        1 UNL1     0.0661
     41 C         -1.47099   -1.130865   -0.894949 C.3        1 UNL1     0.0091
     42 C         -3.011866   -0.145259   -0.754652 C.3        1 UNL1     0.0661
     43 C         -7.669988   5.093599   -5.93979 C.2        1 UNL1     0.2131
     44 O         -8.135916   5.909736   -6.714108 O.2        1 UNL1     -0.2851
     45 O         -8.425159   3.900186   -8.362674 O.3        1 UNL1     -0.5056
     46 O         -4.416152   0.855782   -4.247272 O.2        1 UNL1     -0.2836
     47 C         -5.444419   -1.163552   -0.350201 C.3        1 UNL1     -0.0566
     48 O         -3.010084   -0.142297   0.728285 O.3        1 UNL1     -0.3909
     49 C         -0.32622   -0.147786   -0.997677 C.3        1 UNL1     -0.0577
     50 O         -2.138588   -2.687907   -2.804009 O.3        1 UNL1     -0.3910
     51 O         -0.605229   -2.979167   -5.189135 O.3        1 UNL1     -0.3753
     52 C         -0.168065   0.540278   -3.953633 C.3        1 UNL1     -0.0564
     53 O         2.297761   -1.082516   -2.539908 O.3        1 UNL1     -0.4608
     54 C         2.81047   0.152328   -2.840273 C.2        1 UNL1     0.3042
     55 O         2.480793   1.235295   -2.358262 O.2        1 UNL1     -0.2512
     56 C         3.935486   0.110682   -3.834918 C.3        1 UNL1     0.0332
     57 C         0.520961   -4.251594   -3.276804 C.3        1 UNL1     -0.0567
     58 C         -3.06491   1.03811   -7.246936 C.3        1 UNL1     0.0210
     59 C         -1.933467   -3.458548   -5.393692 C.3        1 UNL1     0.0372
     60 C         -1.790852   -1.024443   -5.620633 C.2        1 UNL1     -0.0208
     61 C         -2.978637   -1.624666   -5.708063 C.2        1 UNL1     0.0882
     62 H         -4.74368   -0.046122   -2.036806 H        1 UNL1     0.0365
     63 H         -6.319811   1.194948   -2.418623 H        1 UNL1     0.0576
     64 H         -7.265323   2.614765   0.147873 H        1 UNL1     0.0615
     65 H         -8.116168   2.848711   -2.848657 H        1 UNL1     0.0622
     66 H         0.097904   -1.469476   -6.365404 H        1 UNL1     0.0645
     67 H         1.308322   -0.455984   -4.94839 H        1 UNL1     0.0362
     68 H         1.850516   -2.347337   -3.976389 H        1 UNL1     0.0741
     69 H         0.943704   -3.159577   -1.621746 H        1 UNL1     0.0359
     70 H         -1.23284   -3.325697   -1.137418 H        1 UNL1     0.0600
     71 H         -1.302494   -1.555527   0.114124 H        1 UNL1     0.0348
     72 H         -3.307183   -1.108719   -1.194933 H        1 UNL1     0.0602
     73 H         -1.703388   0.012342   -5.832002 H        1 UNL1     0.0628
     74 H         -3.162407   -2.668552   -5.45161 H        1 UNL1     0.1022
     75 H         -9.072352   5.654114   -0.017342 H        1 UNL1     0.0279
     76 H         -9.574529   6.583754   -1.37266 H        1 UNL1     0.0279
     77 H         -10.633231   5.311966   -0.639855 H        1 UNL1     0.0279
     78 H         -8.015419   6.522783   -3.00291 H        1 UNL1     0.1553
     79 H         -6.475447   5.82416   -1.970129 H        1 UNL1     0.1484
     80 H         -2.811107   4.995616   -2.54076 H        1 UNL1     0.0317
     81 H         -3.84102   5.665418   -3.797967 H        1 UNL1     0.0317
     82 H         -4.958335   7.192059   -2.150339 H        1 UNL1     0.0428
     83 H         -3.223133   7.410449   -2.205877 H        1 UNL1     0.0428
     84 H         -4.745624   5.068403   1.003481 H        1 UNL1     0.0428
     85 H         -5.91341   5.729468   -0.086653 H        1 UNL1     0.0428
     86 H         -5.275883   3.341119   -0.424582 H        1 UNL1     0.0317
     87 H         -3.637879   3.714897   -0.706688 H        1 UNL1     0.0317
     88 H         -4.539282   7.446176   1.161634 H        1 UNL1     0.0429
     89 H         -2.812481   7.588434   0.823761 H        1 UNL1     0.0429
     90 H         -3.642319   8.740332   -1.434437 H        1 UNL1     0.0308
     91 H         -6.130125   8.071189   -0.801741 H        1 UNL1     0.0233
     92 H         -6.05042   9.502485   0.256811 H        1 UNL1     0.0233
     93 H         -5.85258   9.673338   -1.474163 H        1 UNL1     0.0233
     94 H         -3.992503   10.269514   1.146958 H        1 UNL1     0.0233
     95 H         -2.421682   9.775115   0.497019 H        1 UNL1     0.0233
     96 H         -3.455538   10.88805   -0.428458 H        1 UNL1     0.0233
     97 H         -7.552556   2.256421   -10.143719 H        1 UNL1     0.0280
     98 H         -6.050945   1.390285   -9.964386 H        1 UNL1     0.0280
     99 H         -7.589583   0.603311   -9.502873 H        1 UNL1     0.0280
     100 H         -8.086577   4.621522   -8.863332 H        1 UNL1     0.2922
     101 H         -6.520376   -1.195994   -0.520257 H        1 UNL1     0.0236
     102 H         -5.19245   -1.29484   0.701587 H        1 UNL1     0.0236
     103 H         -5.055116   -2.067668   -0.847404 H        1 UNL1     0.0236
     104 H         -2.880755   0.78097   1.02124 H        1 UNL1     0.2098
     105 H         0.522272   -0.505289   -1.57566 H        1 UNL1     0.0234
     106 H         -0.612246   0.851633   -1.325208 H        1 UNL1     0.0234
     107 H         0.0   0.0   0.0 H        1 UNL1     0.0234
     108 H         -1.794006   -2.386895   -3.666809 H        1 UNL1     0.2098
     109 H         -0.7887   0.466224   -3.049731 H        1 UNL1     0.0234
     110 H         0.578973   1.330346   -3.82146 H        1 UNL1     0.0234
     111 H         -0.830797   0.929115   -4.738196 H        1 UNL1     0.0234
     112 H         4.748825   0.763813   -3.504396 H        1 UNL1     0.0342
     113 H         4.293646   -0.903385   -4.005892 H        1 UNL1     0.0342
     114 H         3.561101   0.497399   -4.792754 H        1 UNL1     0.0342
     115 H         -0.423317   -4.55371   -3.750358 H        1 UNL1     0.0234
     116 H         1.289947   -4.246104   -4.051839 H        1 UNL1     0.0234
     117 H         0.71191   -5.112848   -2.613689 H        1 UNL1     0.0234
     118 H         -2.090446   0.69875   -6.854177 H        1 UNL1     0.0309
     119 H         -3.046358   0.991081   -8.340392 H        1 UNL1     0.0309
     120 H         -3.084062   2.102753   -6.989496 H        1 UNL1     0.0309
     121 H         -1.871471   -4.338894   -6.032835 H        1 UNL1     0.0524
     122 H         -2.417118   -3.76576   -4.451493 H        1 UNL1     0.0524
     123 H         -2.540499   -2.692793   -5.868271 H        1 UNL1     0.0524
@<TRIPOS>BOND
     1     1     2    1
     2     1    42    1
     3     2     3    2
     4     3     4    1
     5     4     5    2
     6     5     7    1
     7     6    75    1
     8     6    76    1
     9     6    77    1
    10     7     9   am
    11     9    10    1
    12    10    11    2
    13    10    43    1
    14    11    14    1
    15    11    15    1
    16    12    13   ar
    17    12    27   ar
    18    12    43    1
    19    13    14    1
    20    13    30   ar
    21    14    17    2
    22    15    16    1
    23    16    17    1
    24    16    18    1
    25    16    22    1
    26    18    19    1
    27    19    20    1
    28    20    21    1
    29    21    22    1
    30    23    24    1
    31    23    88    1
    32    23    89    1
    33    24    25    1
    34    24    26    1
    35    24    90    1
    36    25    91    1
    37    25    92    1
    38    25    93    1
    39    26    94    1
    40    26    95    1
    41    26    96    1
    42    27    28   ar
    43    28    29   ar
    44    29    30   ar
    45    29    31    1
    46    30    33    1
    47    31    32    1
    48    32    33    1
    49    32    35    1
    50    34    97    1
    51    34    98    1
    52    34    99    1
    53    35    61    1
    54    36    37    1
    55    36    60    1
    56    37    38    1
    57    38    39    1
    58    39    40    1
    59    40    41    1
    60    41    42    1
    61    45   100    1
    62    47   101    1
    63    47   102    1
    64    47   103    1
    65    48   104    1
    66    49   105    1
    67    49   106    1
    68    49   107    1
    69    50   108    1
    70    51    59    1
    71    52   109    1
    72    52   110    1
    73    52   111    1
    74    53    54    1
    75    54    55    2
    76    54    56    1
    77    56   112    1
    78    56   113    1
    79    56   114    1
    80    57   115    1
    81    57   116    1
    82    57   117    1
    83    58   118    1
    84    58   119    1
    85    58   120    1
    86    59   121    1
    87    59   122    1
    88    59   123    1
    89    60    61    2
    90     1    47    1
    91     1    62    1
    92     2    63    1
    93     3    64    1
    94     4    65    1
    95     5     6    1
    96     7     8    2
    97     9    78    1
    98    15    79    1
    99    18    80    1
   100    18    81    1
   101    19    82    1
   102    19    83    1
   103    20    23    1
   104    21    84    1
   105    21    85    1
   106    22    86    1
   107    22    87    1
   108    27    45    1
   109    28    34    1
   110    32    58    1
   111    33    46    2
   112    36    51    1
   113    36    66    1
   114    37    52    1
   115    37    67    1
   116    38    53    1
   117    38    68    1
   118    42    48    1
   119    42    72    1
   120    43    44    2
   121    60    73    1
   122    61    74    1
   123    39    69    1
   124    39    57    1
   125    40    70    1
   126    40    50    1
   127    41    71    1
   128    41    49    1
