@<TRIPOS>MOLECULE
*****
 123 128 0 0 0
SMALL
GASTEIGER

@<TRIPOS>ATOM
     1 C         5.165434   1.754899   0.487738 C.3        1 UNL1     0.0009
     2 C         6.601774   2.559488   -0.364673 C.2        1 UNL1     -0.0787
     3 C         7.884016   2.460252   -1.029544 C.2        1 UNL1     -0.0649
     4 C         8.760702   3.693673   -1.788788 C.2        1 UNL1     -0.0542
     5 C         9.780864   3.984149   -2.727921 C.2        1 UNL1     0.0115
     6 C         10.90997   3.356873   -3.591036 C.3        1 UNL1     -0.0348
     7 C         9.875162   5.465503   -3.339219 C.2        1 UNL1     0.2441
     8 O         10.69817   6.289097   -2.963884 O.2        1 UNL1     -0.2702
     9 N         9.12525   5.667997   -4.510876 N.am        1 UNL1     -0.2772
     10 C         7.842067   6.054578   -4.198916 C.2        1 UNL1     0.1049
     11 C         6.997007   5.083383   -3.904168 C.2        1 UNL1     0.0801
     12 C         6.541683   7.664684   -2.793963 C.ar        1 UNL1     0.0753
     13 C         5.783423   6.537571   -2.343114 C.ar        1 UNL1     0.0305
     14 C         5.901764   5.229876   -2.984191 C.2        1 UNL1     0.0924
     15 N         7.120853   3.754001   -4.058872 N.pl3        1 UNL1     -0.3170
     16 C         5.851386   3.154749   -3.743271 C.3        1 UNL1     0.1275
     17 N         5.213743   4.112617   -2.766734 N.2        1 UNL1     -0.2557
     18 C         4.999015   3.208954   -5.007482 C.3        1 UNL1     0.0016
     19 C         5.754964   2.521846   -6.133542 C.3        1 UNL1     0.0026
     20 N         6.026147   1.145246   -5.743079 N.3        1 UNL1     -0.3018
     21 C         6.789125   0.989561   -4.50292 C.3        1 UNL1     0.0026
     22 C         6.009309   1.683051   -3.384505 C.3        1 UNL1     0.0016
     23 C         6.471832   0.322483   -6.849908 C.3        1 UNL1     0.0012
     24 C         5.317016   0.068797   -7.83164 C.3        1 UNL1     -0.0339
     25 C         5.352349   1.057142   -9.008918 C.3        1 UNL1     -0.0615
     26 C         5.347575   -1.372243   -8.310439 C.3        1 UNL1     -0.0615
     27 C         6.335692   8.933952   -2.25857 C.ar        1 UNL1     0.1347
     28 C         5.375998   9.205792   -1.299851 C.ar        1 UNL1     0.0342
     29 C         4.675235   8.072237   -0.83601 C.ar        1 UNL1     0.1435
     30 C         4.896007   6.78876   -1.337176 C.ar        1 UNL1     0.0774
     31 O         3.63379   8.187678   0.016675 O.3        1 UNL1     -0.4436
     32 C         2.913247   6.953771   -0.121759 C.3        1 UNL1     0.3143
     33 C         3.92763   5.95982   -0.650247 C.2        1 UNL1     0.2504
     34 C         4.927786   10.572936   -0.863821 C.3        1 UNL1     -0.0327
     35 O         2.552447   6.521055   1.195751 O.2        1 UNL1     -0.4528
     36 C         -0.688749   4.584752   0.804001 C.3        1 UNL1     0.0854
     37 C         -0.992586   3.320977   -0.089352 C.3        1 UNL1     0.0236
     38 C         -1.592365   2.06199   0.702455 C.3        1 UNL1     0.1131
     39 C         -0.866679   1.535945   2.005884 C.3        1 UNL1     0.0200
     40 C         0.794622   1.391986   2.048205 C.3        1 UNL1     0.0661
     41 C         1.755141   0.620178   0.882303 C.3        1 UNL1     0.0091
     42 C         3.462642   0.98238   0.317812 C.3        1 UNL1     0.0661
     43 C         7.492366   7.454148   -3.913845 C.2        1 UNL1     0.2131
     44 O         7.89176   8.350221   -4.635147 O.2        1 UNL1     -0.2851
     45 O         7.147244   9.968263   -2.720112 O.3        1 UNL1     -0.5056
     46 O         3.944615   4.756734   -0.515527 O.2        1 UNL1     -0.2836
     47 C         5.561583   1.330476   1.927499 C.3        1 UNL1     -0.0566
     48 O         3.912402   -0.428058   0.404397 O.3        1 UNL1     -0.3909
     49 C         0.921663   0.382804   -0.357238 C.3        1 UNL1     -0.0577
     50 O         1.393599   2.611651   2.437265 O.3        1 UNL1     -0.3910
     51 O         -0.81324   4.399525   2.195986 O.3        1 UNL1     -0.3753
     52 C         0.052478   3.157645   -1.240922 C.3        1 UNL1     -0.0564
     53 O         -2.193697   1.019541   -0.19422 O.3        1 UNL1     -0.4608
     54 C         -2.427108   -0.286296   0.149642 C.2        1 UNL1     0.3042
     55 O         -1.856962   -1.286358   -0.284694 O.2        1 UNL1     -0.2512
     56 C         -3.467417   -0.449337   1.221037 C.3        1 UNL1     0.0332
     57 C         -1.588802   2.208437   3.26464 C.3        1 UNL1     -0.0567
     58 C         1.838279   7.194372   -1.207156 C.3        1 UNL1     0.0210
     59 C         -1.127763   5.580675   2.932074 C.3        1 UNL1     0.0372
     60 C         0.639793   5.214234   0.57186 C.2        1 UNL1     -0.0208
     61 C         1.551997   5.653109   1.440201 C.2        1 UNL1     0.0882
     62 H         4.688624   2.738938   0.571588 H        1 UNL1     0.0365
     63 H         6.334568   3.613394   -0.262931 H        1 UNL1     0.0576
     64 H         8.3426   1.493082   -1.247237 H        1 UNL1     0.0615
     65 H         8.272684   4.609778   -1.445169 H        1 UNL1     0.0622
     66 H         -1.433922   5.329611   0.491033 H        1 UNL1     0.0645
     67 H         -1.858156   3.627583   -0.702003 H        1 UNL1     0.0362
     68 H         -2.539956   2.499193   1.052379 H        1 UNL1     0.0741
     69 H         -1.197403   0.525205   2.204469 H        1 UNL1     0.0359
     70 H         0.906617   0.734647   2.93162 H        1 UNL1     0.0600
     71 H         1.799438   -0.399543   1.31261 H        1 UNL1     0.0348
     72 H         3.355943   1.473705   1.295836 H        1 UNL1     0.0602
     73 H         0.757933   5.408184   -0.465288 H        1 UNL1     0.0628
     74 H         1.534205   5.445941   2.510717 H        1 UNL1     0.1022
     75 H         10.955349   2.252141   -3.434375 H        1 UNL1     0.0279
     76 H         10.796698   3.436023   -4.669912 H        1 UNL1     0.0279
     77 H         11.914649   3.663521   -3.265018 H        1 UNL1     0.0279
     78 H         9.064214   4.796277   -5.032849 H        1 UNL1     0.1553
     79 H         7.786742   3.324564   -4.674591 H        1 UNL1     0.1484
     80 H         4.038082   2.717825   -4.812117 H        1 UNL1     0.0317
     81 H         4.771615   4.244615   -5.281977 H        1 UNL1     0.0317
     82 H         6.685265   3.053139   -6.382902 H        1 UNL1     0.0428
     83 H         5.130121   2.573518   -7.025703 H        1 UNL1     0.0428
     84 H         6.910227   -0.052266   -4.19028 H        1 UNL1     0.0428
     85 H         7.81894   1.358145   -4.607538 H        1 UNL1     0.0428
     86 H         6.525587   1.43612   -2.475401 H        1 UNL1     0.0317
     87 H         5.030229   1.204977   -3.258236 H        1 UNL1     0.0317
     88 H         7.267636   0.863236   -7.378659 H        1 UNL1     0.0429
     89 H         6.905108   -0.621755   -6.495705 H        1 UNL1     0.0429
     90 H         4.363669   0.188781   -7.303486 H        1 UNL1     0.0308
     91 H         6.305776   1.005437   -9.543152 H        1 UNL1     0.0233
     92 H         4.537911   0.854162   -9.708274 H        1 UNL1     0.0233
     93 H         5.225187   2.097212   -8.685004 H        1 UNL1     0.0233
     94 H         4.653535   -1.507063   -9.14708 H        1 UNL1     0.0233
     95 H         6.351443   -1.628426   -8.660555 H        1 UNL1     0.0233
     96 H         5.064929   -2.06409   -7.512048 H        1 UNL1     0.0233
     97 H         4.127905   10.525006   -0.130934 H        1 UNL1     0.0280
     98 H         5.737432   11.141766   -0.388257 H        1 UNL1     0.0280
     99 H         4.562771   11.137661   -1.737288 H        1 UNL1     0.0280
     100 H         6.679702   10.71793   -3.044189 H        1 UNL1     0.2922
     101 H         4.698946   0.897749   2.433721 H        1 UNL1     0.0236
     102 H         6.011433   2.138113   2.503989 H        1 UNL1     0.0236
     103 H         6.31853   0.528465   1.929338 H        1 UNL1     0.0236
     104 H         4.331381   -0.550899   1.278661 H        1 UNL1     0.2098
     105 H         0.708462   1.279558   -0.933595 H        1 UNL1     0.0234
     106 H         1.291997   -0.407051   -1.010621 H        1 UNL1     0.0234
     107 H         0.0   -0.0   0.0 H        1 UNL1     0.0234
     108 H         1.195352   3.267259   1.741101 H        1 UNL1     0.2098
     109 H         1.077261   3.046314   -0.859951 H        1 UNL1     0.0234
     110 H         -0.178974   2.328111   -1.917714 H        1 UNL1     0.0234
     111 H         0.073161   4.038323   -1.896608 H        1 UNL1     0.0234
     112 H         -3.598948   -1.510436   1.45366 H        1 UNL1     0.0342
     113 H         -3.225146   0.119992   2.117147 H        1 UNL1     0.0342
     114 H         -4.42224   -0.068779   0.832895 H        1 UNL1     0.0342
     115 H         -2.658224   1.959355   3.30314 H        1 UNL1     0.0234
     116 H         -1.152482   1.932222   4.226607 H        1 UNL1     0.0234
     117 H         -1.628341   3.310093   3.21237 H        1 UNL1     0.0234
     118 H         0.936618   7.681846   -0.796811 H        1 UNL1     0.0309
     119 H         2.207472   7.779888   -2.055136 H        1 UNL1     0.0309
     120 H         1.450689   6.26068   -1.629174 H        1 UNL1     0.0309
     121 H         -0.307272   6.284102   2.792996 H        1 UNL1     0.0524
     122 H         -2.047841   6.067721   2.568371 H        1 UNL1     0.0524
     123 H         -1.245945   5.346301   3.986207 H        1 UNL1     0.0524
@<TRIPOS>BOND
     1     1     2    1
     2     1    42    1
     3     2     3    2
     4     3     4    1
     5     4     5    2
     6     5     7    1
     7     6    75    1
     8     6    76    1
     9     6    77    1
    10     7     9   am
    11     9    10    1
    12    10    11    2
    13    10    43    1
    14    11    14    1
    15    11    15    1
    16    12    13   ar
    17    12    27   ar
    18    12    43    1
    19    13    14    1
    20    13    30   ar
    21    14    17    2
    22    15    16    1
    23    16    17    1
    24    16    18    1
    25    16    22    1
    26    18    19    1
    27    19    20    1
    28    20    21    1
    29    21    22    1
    30    23    24    1
    31    23    88    1
    32    23    89    1
    33    24    25    1
    34    24    26    1
    35    24    90    1
    36    25    91    1
    37    25    92    1
    38    25    93    1
    39    26    94    1
    40    26    95    1
    41    26    96    1
    42    27    28   ar
    43    28    29   ar
    44    29    30   ar
    45    29    31    1
    46    30    33    1
    47    31    32    1
    48    32    33    1
    49    32    35    1
    50    34    97    1
    51    34    98    1
    52    34    99    1
    53    35    61    1
    54    36    37    1
    55    36    60    1
    56    37    38    1
    57    38    39    1
    58    39    40    1
    59    40    41    1
    60    41    42    1
    61    45   100    1
    62    47   101    1
    63    47   102    1
    64    47   103    1
    65    48   104    1
    66    49   105    1
    67    49   106    1
    68    49   107    1
    69    50   108    1
    70    51    59    1
    71    52   109    1
    72    52   110    1
    73    52   111    1
    74    53    54    1
    75    54    55    2
    76    54    56    1
    77    56   112    1
    78    56   113    1
    79    56   114    1
    80    57   115    1
    81    57   116    1
    82    57   117    1
    83    58   118    1
    84    58   119    1
    85    58   120    1
    86    59   121    1
    87    59   122    1
    88    59   123    1
    89    60    61    2
    90     1    47    1
    91     1    62    1
    92     2    63    1
    93     3    64    1
    94     4    65    1
    95     5     6    1
    96     7     8    2
    97     9    78    1
    98    15    79    1
    99    18    80    1
   100    18    81    1
   101    19    82    1
   102    19    83    1
   103    20    23    1
   104    21    84    1
   105    21    85    1
   106    22    86    1
   107    22    87    1
   108    27    45    1
   109    28    34    1
   110    32    58    1
   111    33    46    2
   112    36    51    1
   113    36    66    1
   114    37    52    1
   115    37    67    1
   116    38    53    1
   117    38    68    1
   118    42    48    1
   119    42    72    1
   120    43    44    2
   121    60    73    1
   122    61    74    1
   123    39    69    1
   124    39    57    1
   125    40    70    1
   126    40    50    1
   127    41    71    1
   128    41    49    1
