@<TRIPOS>MOLECULE
*****
 123 128 0 0 0
SMALL
GASTEIGER

@<TRIPOS>ATOM
     1 C         5.178599   0.948437   0.553372 C.3        1 UNL1     0.0009
     2 C         6.617591   0.892389   1.720932 C.2        1 UNL1     -0.0787
     3 C         7.429134   1.515721   2.745091 C.2        1 UNL1     -0.0649
     4 C         8.708465   0.832245   3.61832 C.2        1 UNL1     -0.0542
     5 C         9.498919   0.932461   4.789737 C.2        1 UNL1     0.0115
     6 C         9.836945   1.84102   6.003648 C.3        1 UNL1     -0.0348
     7 C         10.347157   -0.344459   5.266136 C.2        1 UNL1     0.2441
     8 O         11.552016   -0.44928   5.082142 O.2        1 UNL1     -0.2702
     9 N         9.665737   -1.212766   6.136687 N.am        1 UNL1     -0.2772
     10 C         8.959702   -2.152856   5.421797 C.2        1 UNL1     0.1049
     11 C         7.775098   -1.77596   4.975832 C.2        1 UNL1     0.0801
     12 C         9.18101   -3.801966   3.553966 C.ar        1 UNL1     0.0753
     13 C         7.999539   -3.214219   2.999629 C.ar        1 UNL1     0.0305
     14 C         7.18523   -2.269661   3.761051 C.2        1 UNL1     0.0924
     15 N         7.043541   -0.689882   5.278796 N.pl3        1 UNL1     -0.3170
     16 C         5.756572   -0.838335   4.652755 C.3        1 UNL1     0.1275
     17 N         6.020345   -1.709016   3.448569 N.2        1 UNL1     -0.2557
     18 C         4.889043   -1.668668   5.593841 C.3        1 UNL1     0.0016
     19 C         4.851728   -0.984818   6.951245 C.3        1 UNL1     0.0026
     20 N         4.308841   0.356278   6.784621 N.3        1 UNL1     -0.3018
     21 C         5.041423   1.211715   5.848715 C.3        1 UNL1     0.0026
     22 C         5.062591   0.507669   4.490861 C.3        1 UNL1     0.0016
     23 C         3.952583   0.980827   8.043057 C.3        1 UNL1     0.0012
     24 C         3.610486   -0.085345   9.095673 C.3        1 UNL1     -0.0339
     25 C         4.388017   0.144381   10.402092 C.3        1 UNL1     -0.0615
     26 C         2.111138   -0.117804   9.335841 C.3        1 UNL1     -0.0615
     27 C         9.884248   -4.790892   2.870153 C.ar        1 UNL1     0.1347
     28 C         9.482292   -5.299428   1.647912 C.ar        1 UNL1     0.0342
     29 C         8.344068   -4.671478   1.099015 C.ar        1 UNL1     0.1435
     30 C         7.650216   -3.654545   1.756005 C.ar        1 UNL1     0.0774
     31 O         7.764684   -5.127487   -0.032964 O.3        1 UNL1     -0.4436
     32 C         6.437495   -4.580908   -0.006652 C.3        1 UNL1     0.3143
     33 C         6.529048   -3.361196   0.88785 C.2        1 UNL1     0.2504
     34 C         10.037444   -6.525043   0.97726 C.3        1 UNL1     -0.0327
     35 O         6.145066   -4.108586   -1.327504 O.2        1 UNL1     -0.4528
     36 C         2.389792   -4.46338   -1.751915 C.3        1 UNL1     0.0854
     37 C         1.226396   -3.850445   -0.881086 C.3        1 UNL1     0.0236
     38 C         0.152975   -2.985161   -1.700109 C.3        1 UNL1     0.1131
     39 C         0.645978   -1.8404   -2.674141 C.3        1 UNL1     0.0200
     40 C         1.85821   -0.79529   -2.204381 C.3        1 UNL1     0.0661
     41 C         1.921455   0.059225   -0.74034 C.3        1 UNL1     0.0091
     42 C         3.359516   0.576573   0.274418 C.3        1 UNL1     0.0661
     43 C         9.582474   -3.387295   4.921128 C.2        1 UNL1     0.2131
     44 O         10.295434   -4.057702   5.645683 O.2        1 UNL1     -0.2851
     45 O         11.049358   -5.278066   3.458897 O.3        1 UNL1     -0.5056
     46 O         5.844791   -2.36249   0.872591 O.2        1 UNL1     -0.2836
     47 C         5.502267   1.863924   -0.657868 C.3        1 UNL1     -0.0566
     48 O         2.877876   1.967713   0.452932 O.3        1 UNL1     -0.3909
     49 C         0.898069   -0.522867   0.209052 C.3        1 UNL1     -0.0577
     50 O         3.129543   -1.335414   -2.503883 O.3        1 UNL1     -0.3910
     51 O         2.443664   -4.038201   -3.094953 O.3        1 UNL1     -0.3753
     52 C         1.723588   -3.428892   0.540196 C.3        1 UNL1     -0.0564
     53 O         -1.109217   -2.713656   -0.934941 O.3        1 UNL1     -0.4608
     54 C         -1.17435   -2.227073   0.344482 C.2        1 UNL1     0.3042
     55 O         -1.34266   -1.058711   0.691529 O.2        1 UNL1     -0.2512
     56 C         -1.078587   -3.292851   1.398835 C.3        1 UNL1     0.0332
     57 C         0.725759   -2.460825   -4.146175 C.3        1 UNL1     -0.0567
     58 C         5.542643   -5.638034   0.681283 C.3        1 UNL1     0.0210
     59 C         1.276143   -4.327383   -3.862504 C.3        1 UNL1     0.0372
     60 C         3.756522   -4.285415   -1.190188 C.2        1 UNL1     -0.0208
     61 C         4.892298   -3.912318   -1.781419 C.2        1 UNL1     0.0882
     62 H         5.41511   -0.076476   0.243005 H        1 UNL1     0.0365
     63 H         7.062298   -0.067464   1.450033 H        1 UNL1     0.0576
     64 H         7.163415   2.483774   3.175644 H        1 UNL1     0.0615
     65 H         8.944326   -0.080154   3.063901 H        1 UNL1     0.0622
     66 H         2.199446   -5.545856   -1.744211 H        1 UNL1     0.0645
     67 H         0.622831   -4.726172   -0.585502 H        1 UNL1     0.0362
     68 H         -0.254764   -3.770116   -2.35518 H        1 UNL1     0.0741
     69 H         -0.180858   -1.171168   -2.871318 H        1 UNL1     0.0359
     70 H         1.716504   0.009143   -2.951286 H        1 UNL1     0.0600
     71 H         1.424192   1.001081   -1.044634 H        1 UNL1     0.0348
     72 H         3.755795   0.370971   -0.730573 H        1 UNL1     0.0602
     73 H         3.769713   -4.632587   -0.18692 H        1 UNL1     0.0628
     74 H         4.95541   -3.490745   -2.785178 H        1 UNL1     0.1022
     75 H         9.741978   2.91834   5.725444 H        1 UNL1     0.0279
     76 H         9.178908   1.762928   6.866178 H        1 UNL1     0.0279
     77 H         10.896039   1.784889   6.294973 H        1 UNL1     0.0279
     78 H         8.996396   -0.684208   6.692283 H        1 UNL1     0.1553
     79 H         7.18707   -0.133391   6.101383 H        1 UNL1     0.1484
     80 H         3.884131   -1.762086   5.164666 H        1 UNL1     0.0317
     81 H         5.282934   -2.685766   5.693904 H        1 UNL1     0.0317
     82 H         5.846812   -0.953733   7.418956 H        1 UNL1     0.0428
     83 H         4.229451   -1.594366   7.607197 H        1 UNL1     0.0428
     84 H         4.568416   2.184341   5.68116 H        1 UNL1     0.0428
     85 H         6.043303   1.463256   6.223257 H        1 UNL1     0.0428
     86 H         5.486396   1.216417   3.803799 H        1 UNL1     0.0317
     87 H         4.038423   0.376604   4.120727 H        1 UNL1     0.0317
     88 H         4.818714   1.555518   8.396389 H        1 UNL1     0.0429
     89 H         3.125573   1.691177   7.915652 H        1 UNL1     0.0429
     90 H         3.872395   -1.074945   8.702852 H        1 UNL1     0.0308
     91 H         4.747476   1.175195   10.474986 H        1 UNL1     0.0233
     92 H         3.76161   -0.079138   11.268846 H        1 UNL1     0.0233
     93 H         5.267417   -0.505767   10.484541 H        1 UNL1     0.0233
     94 H         1.600928   -0.569369   8.478163 H        1 UNL1     0.0233
     95 H         1.887144   -0.7234   10.218475 H        1 UNL1     0.0233
     96 H         1.709293   0.888053   9.486642 H        1 UNL1     0.0233
     97 H         10.456484   -6.30075   0.000874 H        1 UNL1     0.0280
     98 H         10.851379   -6.980741   1.556143 H        1 UNL1     0.0280
     99 H         9.235087   -7.269455   0.846231 H        1 UNL1     0.0280
     100 H         11.080446   -6.214275   3.549279 H        1 UNL1     0.2922
     101 H         4.944827   1.527976   -1.531971 H        1 UNL1     0.0236
     102 H         6.569678   1.945787   -0.860143 H        1 UNL1     0.0236
     103 H         5.166924   2.901643   -0.493926 H        1 UNL1     0.0236
     104 H         3.620206   2.493285   0.810271 H        1 UNL1     0.2098
     105 H         0.70623   -1.583503   0.067421 H        1 UNL1     0.0234
     106 H         1.080565   -0.309299   1.262148 H        1 UNL1     0.0234
     107 H         0.0   0.0   0.0 H        1 UNL1     0.0234
     108 H         3.743561   -1.036384   -1.805793 H        1 UNL1     0.2098
     109 H         2.787067   -3.151922   0.543658 H        1 UNL1     0.0234
     110 H         1.132455   -2.618477   0.980119 H        1 UNL1     0.0234
     111 H         1.62806   -4.250485   1.262557 H        1 UNL1     0.0234
     112 H         -0.122347   -3.211459   1.924504 H        1 UNL1     0.0342
     113 H         -1.913024   -3.25397   2.097438 H        1 UNL1     0.0342
     114 H         -1.10682   -4.271756   0.900728 H        1 UNL1     0.0342
     115 H         -0.16486   -2.216221   -4.741285 H        1 UNL1     0.0234
     116 H         1.599899   -2.140119   -4.71633 H        1 UNL1     0.0234
     117 H         0.695509   -3.563916   -4.160876 H        1 UNL1     0.0234
     118 H         6.049354   -6.116027   1.537889 H        1 UNL1     0.0309
     119 H         4.580294   -5.235792   1.013379 H        1 UNL1     0.0309
     120 H         5.307803   -6.482126   0.023662 H        1 UNL1     0.0309
     121 H         0.758936   -5.154526   -3.377026 H        1 UNL1     0.0524
     122 H         0.577717   -3.474798   -3.899071 H        1 UNL1     0.0524
     123 H         1.551604   -4.601273   -4.876999 H        1 UNL1     0.0524
@<TRIPOS>BOND
     1     1     2    1
     2     1    42    1
     3     2     3    2
     4     3     4    1
     5     4     5    2
     6     5     7    1
     7     6    75    1
     8     6    76    1
     9     6    77    1
    10     7     9   am
    11     9    10    1
    12    10    11    2
    13    10    43    1
    14    11    14    1
    15    11    15    1
    16    12    13   ar
    17    12    27   ar
    18    12    43    1
    19    13    14    1
    20    13    30   ar
    21    14    17    2
    22    15    16    1
    23    16    17    1
    24    16    18    1
    25    16    22    1
    26    18    19    1
    27    19    20    1
    28    20    21    1
    29    21    22    1
    30    23    24    1
    31    23    88    1
    32    23    89    1
    33    24    25    1
    34    24    26    1
    35    24    90    1
    36    25    91    1
    37    25    92    1
    38    25    93    1
    39    26    94    1
    40    26    95    1
    41    26    96    1
    42    27    28   ar
    43    28    29   ar
    44    29    30   ar
    45    29    31    1
    46    30    33    1
    47    31    32    1
    48    32    33    1
    49    32    35    1
    50    34    97    1
    51    34    98    1
    52    34    99    1
    53    35    61    1
    54    36    37    1
    55    36    60    1
    56    37    38    1
    57    38    39    1
    58    39    40    1
    59    40    41    1
    60    41    42    1
    61    45   100    1
    62    47   101    1
    63    47   102    1
    64    47   103    1
    65    48   104    1
    66    49   105    1
    67    49   106    1
    68    49   107    1
    69    50   108    1
    70    51    59    1
    71    52   109    1
    72    52   110    1
    73    52   111    1
    74    53    54    1
    75    54    55    2
    76    54    56    1
    77    56   112    1
    78    56   113    1
    79    56   114    1
    80    57   115    1
    81    57   116    1
    82    57   117    1
    83    58   118    1
    84    58   119    1
    85    58   120    1
    86    59   121    1
    87    59   122    1
    88    59   123    1
    89    60    61    2
    90     1    47    1
    91     1    62    1
    92     2    63    1
    93     3    64    1
    94     4    65    1
    95     5     6    1
    96     7     8    2
    97     9    78    1
    98    15    79    1
    99    18    80    1
   100    18    81    1
   101    19    82    1
   102    19    83    1
   103    20    23    1
   104    21    84    1
   105    21    85    1
   106    22    86    1
   107    22    87    1
   108    27    45    1
   109    28    34    1
   110    32    58    1
   111    33    46    2
   112    36    51    1
   113    36    66    1
   114    37    52    1
   115    37    67    1
   116    38    53    1
   117    38    68    1
   118    42    48    1
   119    42    72    1
   120    43    44    2
   121    60    73    1
   122    61    74    1
   123    39    69    1
   124    39    57    1
   125    40    70    1
   126    40    50    1
   127    41    71    1
   128    41    49    1
