@<TRIPOS>MOLECULE
*****
 123 128 0 0 0
SMALL
GASTEIGER

@<TRIPOS>ATOM
     1 C         5.16767   1.746585   0.4937 C.3        1 UNL1     0.0009
     2 C         6.605083   2.55216   -0.355964 C.2        1 UNL1     -0.0787
     3 C         7.88718   2.453479   -1.021198 C.2        1 UNL1     -0.0649
     4 C         8.765522   3.68832   -1.776209 C.2        1 UNL1     -0.0542
     5 C         9.786062   3.980646   -2.714356 C.2        1 UNL1     0.0115
     6 C         10.914305   3.354819   -3.579649 C.3        1 UNL1     -0.0348
     7 C         9.882355   5.463968   -3.320553 C.2        1 UNL1     0.2441
     8 O         10.706482   6.28515   -2.942402 O.2        1 UNL1     -0.2702
     9 N         9.1327   5.671508   -4.491491 N.am        1 UNL1     -0.2772
     10 C         7.850045   6.058748   -4.178177 C.2        1 UNL1     0.1049
     11 C         7.003677   5.087688   -3.886757 C.2        1 UNL1     0.0801
     12 C         6.551863   7.665766   -2.767663 C.ar        1 UNL1     0.0753
     13 C         5.792085   6.538134   -2.320682 C.ar        1 UNL1     0.0305
     14 C         5.908647   5.232495   -2.966259 C.2        1 UNL1     0.0924
     15 N         7.125722   3.75868   -4.046039 N.pl3        1 UNL1     -0.3170
     16 C         5.85545   3.160064   -3.732478 C.3        1 UNL1     0.1275
     17 N         5.219119   4.115425   -2.752637 N.2        1 UNL1     -0.2557
     18 C         5.003134   3.219773   -4.996477 C.3        1 UNL1     0.0016
     19 C         5.758136   2.535524   -6.124912 C.3        1 UNL1     0.0026
     20 N         6.027462   1.157222   -5.739196 N.3        1 UNL1     -0.3018
     21 C         6.790248   0.996236   -4.499595 C.3        1 UNL1     0.0026
     22 C         6.011388   1.686927   -3.378784 C.3        1 UNL1     0.0016
     23 C         6.472017   0.337672   -6.848859 C.3        1 UNL1     0.0012
     24 C         5.316844   0.08893   -7.831436 C.3        1 UNL1     -0.0339
     25 C         5.343344   1.092307   -8.996163 C.3        1 UNL1     -0.0615
     26 C         5.355747   -1.345705   -8.328516 C.3        1 UNL1     -0.0615
     27 C         6.347597   8.93346   -2.2279 C.ar        1 UNL1     0.1347
     28 C         5.388286   9.203296   -1.268232 C.ar        1 UNL1     0.0342
     29 C         4.685997   8.0691   -0.808283 C.ar        1 UNL1     0.1435
     30 C         4.905025   6.787059   -1.313868 C.ar        1 UNL1     0.0774
     31 O         3.644722   8.183014   0.044815 O.3        1 UNL1     -0.4436
     32 C         2.922508   6.950567   -0.097851 C.3        1 UNL1     0.3143
     33 C         3.935538   5.957069   -0.629777 C.2        1 UNL1     0.2504
     34 C         4.94193   10.569536   -0.827489 C.3        1 UNL1     -0.0327
     35 O         2.561143   6.513807   1.218169 O.2        1 UNL1     -0.4528
     36 C         -0.682675   4.58325   0.819819 C.3        1 UNL1     0.0854
     37 C         -0.988235   3.32297   -0.077873 C.3        1 UNL1     0.0236
     38 C         -1.589705   2.062077   0.709608 C.3        1 UNL1     0.1131
     39 C         -0.864712   1.530567   2.011204 C.3        1 UNL1     0.0200
     40 C         0.796394   1.384216   2.052996 C.3        1 UNL1     0.0661
     41 C         1.75585   0.615127   0.884425 C.3        1 UNL1     0.0091
     42 C         3.463832   0.976961   0.32115 C.3        1 UNL1     0.0661
     43 C         7.502243   7.457801   -3.888283 C.2        1 UNL1     0.2131
     44 O         7.902838   8.35581   -4.606503 O.2        1 UNL1     -0.2851
     45 O         7.16054   9.968256   -2.685895 O.3        1 UNL1     -0.5056
     46 O         3.950897   4.753505   -0.4992 O.2        1 UNL1     -0.2836
     47 C         5.563266   1.316673   1.931984 C.3        1 UNL1     -0.0566
     48 O         3.911684   -0.434374   0.40287 O.3        1 UNL1     -0.3909
     49 C         0.922033   0.383149   -0.355909 C.3        1 UNL1     -0.0577
     50 O         1.397027   2.601722   2.44624 O.3        1 UNL1     -0.3910
     51 O         -0.807395   4.3934   2.211162 O.3        1 UNL1     -0.3753
     52 C         0.05659   3.162189   -1.230019 C.3        1 UNL1     -0.0564
     53 O         -2.19246   1.023535   -0.190638 O.3        1 UNL1     -0.4608
     54 C         -2.415138   -0.286507   0.144226 C.2        1 UNL1     0.3042
     55 O         -1.842779   -1.279457   -0.303317 O.2        1 UNL1     -0.2512
     56 C         -3.445259   -0.464746   1.223019 C.3        1 UNL1     0.0332
     57 C         -1.585905   2.199698   3.272282 C.3        1 UNL1     -0.0567
     58 C         1.847851   7.196357   -1.182391 C.3        1 UNL1     0.0210
     59 C         -1.151232   5.566083   2.947679 C.3        1 UNL1     0.0372
     60 C         0.646714   5.21173   0.58982 C.2        1 UNL1     -0.0208
     61 C         1.559524   5.646378   1.45965 C.2        1 UNL1     0.0882
     62 H         4.692192   2.730974   0.580947 H        1 UNL1     0.0365
     63 H         6.339305   3.606071   -0.250589 H        1 UNL1     0.0576
     64 H         8.344451   1.486444   -1.242229 H        1 UNL1     0.0615
     65 H         8.278749   4.603895   -1.429428 H        1 UNL1     0.0622
     66 H         -1.426845   5.330189   0.509433 H        1 UNL1     0.0645
     67 H         -1.853398   3.632854   -0.689447 H        1 UNL1     0.0362
     68 H         -2.536698   2.499355   1.061054 H        1 UNL1     0.0741
     69 H         -1.196799   0.519598   2.206314 H        1 UNL1     0.0359
     70 H         0.907513   0.723688   2.934141 H        1 UNL1     0.0600
     71 H         1.798775   -0.406128   1.311218 H        1 UNL1     0.0348
     72 H         3.357812   1.465059   1.300862 H        1 UNL1     0.0602
     73 H         0.7651   5.409089   -0.446655 H        1 UNL1     0.0628
     74 H         1.541468   5.43555   2.529446 H        1 UNL1     0.1022
     75 H         10.958192   2.249494   -3.426792 H        1 UNL1     0.0279
     76 H         10.801124   3.437836   -4.658244 H        1 UNL1     0.0279
     77 H         11.919403   3.658983   -3.252597 H        1 UNL1     0.0279
     78 H         9.070477   4.801674   -5.016461 H        1 UNL1     0.1553
     79 H         7.79102   3.330465   -4.663246 H        1 UNL1     0.1484
     80 H         4.041541   2.729275   -4.802786 H        1 UNL1     0.0317
     81 H         4.777132   4.256679   -5.267402 H        1 UNL1     0.0317
     82 H         6.689151   3.066413   -6.37246 H        1 UNL1     0.0428
     83 H         5.133349   2.591112   -7.016877 H        1 UNL1     0.0428
     84 H         6.909945   -0.046823   -4.190545 H        1 UNL1     0.0428
     85 H         7.820559   1.363785   -4.602964 H        1 UNL1     0.0428
     86 H         6.527345   1.43617   -2.470545 H        1 UNL1     0.0317
     87 H         5.031664   1.209746   -3.254141 H        1 UNL1     0.0317
     88 H         7.268543   0.879166   -7.375761 H        1 UNL1     0.0429
     89 H         6.90402   -0.608365   -6.497917 H        1 UNL1     0.0429
     90 H         4.363832   0.196017   -7.299915 H        1 UNL1     0.0308
     91 H         6.293634   1.049203   -9.536713 H        1 UNL1     0.0233
     92 H         4.525081   0.896772   -9.693171 H        1 UNL1     0.0233
     93 H         5.216281   2.127913   -8.658214 H        1 UNL1     0.0233
     94 H         4.659721   -1.474816   -9.164408 H        1 UNL1     0.0233
     95 H         6.360135   -1.590412   -8.685285 H        1 UNL1     0.0233
     96 H         5.080735   -2.049533   -7.537969 H        1 UNL1     0.0233
     97 H         4.148287   10.520027   -0.087956 H        1 UNL1     0.0280
     98 H         5.75478   11.139113   -0.358326 H        1 UNL1     0.0280
     99 H         4.568855   11.134385   -1.697464 H        1 UNL1     0.0280
     100 H         6.693996   10.719143   -3.008584 H        1 UNL1     0.2922
     101 H         4.700052   0.883373   2.436731 H        1 UNL1     0.0236
     102 H         6.014217   2.121711   2.511242 H        1 UNL1     0.0236
     103 H         6.319127   0.513638   1.931047 H        1 UNL1     0.0236
     104 H         4.330826   -0.560699   1.276559 H        1 UNL1     0.2098
     105 H         0.709721   1.282225   -0.928969 H        1 UNL1     0.0234
     106 H         1.291498   -0.404696   -1.012204 H        1 UNL1     0.0234
     107 H         0.0   -0.0   0.0 H        1 UNL1     0.0234
     108 H         1.199057   3.260175   1.752687 H        1 UNL1     0.2098
     109 H         1.081226   3.048162   -0.849454 H        1 UNL1     0.0234
     110 H         -0.175995   2.335304   -1.909658 H        1 UNL1     0.0234
     111 H         0.078454   4.045091   -1.882669 H        1 UNL1     0.0234
     112 H         -3.568614   -1.528535   1.447704 H        1 UNL1     0.0342
     113 H         -3.198633   0.098388   2.121851 H        1 UNL1     0.0342
     114 H         -4.405573   -0.086547   0.846286 H        1 UNL1     0.0342
     115 H         -2.655662   1.951932   3.309945 H        1 UNL1     0.0234
     116 H         -1.149944   1.919583   4.233283 H        1 UNL1     0.0234
     117 H         -1.623954   3.30158   3.223805 H        1 UNL1     0.0234
     118 H         0.946856   7.683635   -0.770354 H        1 UNL1     0.0309
     119 H         2.217822   7.784289   -2.028358 H        1 UNL1     0.0309
     120 H         1.458991   6.264648   -1.607614 H        1 UNL1     0.0309
     121 H         -0.346602   6.288273   2.812147 H        1 UNL1     0.0524
     122 H         -2.08103   6.032434   2.581579 H        1 UNL1     0.0524
     123 H         -1.267429   5.327686   4.00113 H        1 UNL1     0.0524
@<TRIPOS>BOND
     1     1     2    1
     2     1    42    1
     3     2     3    2
     4     3     4    1
     5     4     5    2
     6     5     7    1
     7     6    75    1
     8     6    76    1
     9     6    77    1
    10     7     9   am
    11     9    10    1
    12    10    11    2
    13    10    43    1
    14    11    14    1
    15    11    15    1
    16    12    13   ar
    17    12    27   ar
    18    12    43    1
    19    13    14    1
    20    13    30   ar
    21    14    17    2
    22    15    16    1
    23    16    17    1
    24    16    18    1
    25    16    22    1
    26    18    19    1
    27    19    20    1
    28    20    21    1
    29    21    22    1
    30    23    24    1
    31    23    88    1
    32    23    89    1
    33    24    25    1
    34    24    26    1
    35    24    90    1
    36    25    91    1
    37    25    92    1
    38    25    93    1
    39    26    94    1
    40    26    95    1
    41    26    96    1
    42    27    28   ar
    43    28    29   ar
    44    29    30   ar
    45    29    31    1
    46    30    33    1
    47    31    32    1
    48    32    33    1
    49    32    35    1
    50    34    97    1
    51    34    98    1
    52    34    99    1
    53    35    61    1
    54    36    37    1
    55    36    60    1
    56    37    38    1
    57    38    39    1
    58    39    40    1
    59    40    41    1
    60    41    42    1
    61    45   100    1
    62    47   101    1
    63    47   102    1
    64    47   103    1
    65    48   104    1
    66    49   105    1
    67    49   106    1
    68    49   107    1
    69    50   108    1
    70    51    59    1
    71    52   109    1
    72    52   110    1
    73    52   111    1
    74    53    54    1
    75    54    55    2
    76    54    56    1
    77    56   112    1
    78    56   113    1
    79    56   114    1
    80    57   115    1
    81    57   116    1
    82    57   117    1
    83    58   118    1
    84    58   119    1
    85    58   120    1
    86    59   121    1
    87    59   122    1
    88    59   123    1
    89    60    61    2
    90     1    47    1
    91     1    62    1
    92     2    63    1
    93     3    64    1
    94     4    65    1
    95     5     6    1
    96     7     8    2
    97     9    78    1
    98    15    79    1
    99    18    80    1
   100    18    81    1
   101    19    82    1
   102    19    83    1
   103    20    23    1
   104    21    84    1
   105    21    85    1
   106    22    86    1
   107    22    87    1
   108    27    45    1
   109    28    34    1
   110    32    58    1
   111    33    46    2
   112    36    51    1
   113    36    66    1
   114    37    52    1
   115    37    67    1
   116    38    53    1
   117    38    68    1
   118    42    48    1
   119    42    72    1
   120    43    44    2
   121    60    73    1
   122    61    74    1
   123    39    69    1
   124    39    57    1
   125    40    70    1
   126    40    50    1
   127    41    71    1
   128    41    49    1
