@<TRIPOS>MOLECULE
*****
 123 128 0 0 0
SMALL
GASTEIGER

@<TRIPOS>ATOM
     1 C         4.072555   2.607518   -1.874431 C.3        1 UNL1     0.0009
     2 C         5.047119   2.737579   -3.446164 C.2        1 UNL1     -0.0787
     3 C         6.286067   2.56112   -4.174118 C.2        1 UNL1     -0.0649
     4 C         6.560155   2.780526   -5.830347 C.2        1 UNL1     -0.0542
     5 C         7.413632   2.468634   -6.917259 C.2        1 UNL1     0.0115
     6 C         8.780341   1.837548   -7.300875 C.3        1 UNL1     -0.0348
     7 C         6.869348   2.667563   -8.414313 C.2        1 UNL1     0.2441
     8 O         7.17891   3.622456   -9.11351 O.2        1 UNL1     -0.2702
     9 N         6.224697   1.544193   -8.960772 N.am        1 UNL1     -0.2772
     10 C         4.885249   1.558884   -8.646152 C.2        1 UNL1     0.1049
     11 C         4.561481   1.084518   -7.456878 C.2        1 UNL1     0.0801
     12 C         2.862165   3.030081   -8.652747 C.ar        1 UNL1     0.0753
     13 C         2.672339   2.642399   -7.288095 C.ar        1 UNL1     0.0305
     14 C         3.441573   1.554908   -6.687517 C.2        1 UNL1     0.0924
     15 N         5.299864   0.391745   -6.572919 N.pl3        1 UNL1     -0.3170
     16 C         4.427967   -0.03483   -5.510806 C.3        1 UNL1     0.1275
     17 N         3.331066   1.001399   -5.483216 N.2        1 UNL1     -0.2557
     18 C         3.770244   -1.335858   -5.960724 C.3        1 UNL1     0.0016
     19 C         4.860329   -2.333972   -6.317199 C.3        1 UNL1     0.0026
     20 N         5.699188   -2.548577   -5.146178 N.3        1 UNL1     -0.3018
     21 C         6.327276   -1.342895   -4.601929 C.3        1 UNL1     0.0026
     22 C         5.213915   -0.356014   -4.246419 C.3        1 UNL1     0.0016
     23 C         6.576626   -3.69398   -5.283285 C.3        1 UNL1     0.0012
     24 C         5.76803   -5.000139   -5.239973 C.3        1 UNL1     -0.0339
     25 C         6.561095   -6.130326   -4.563377 C.3        1 UNL1     -0.0615
     26 C         4.434168   -4.764351   -4.552952 C.3        1 UNL1     -0.0615
     27 C         2.043354   3.983893   -9.252672 C.ar        1 UNL1     0.1347
     28 C         0.981363   4.587755   -8.603383 C.ar        1 UNL1     0.0342
     29 C         0.843988   4.226703   -7.246205 C.ar        1 UNL1     0.1435
     30 C         1.679182   3.299602   -6.621582 C.ar        1 UNL1     0.0774
     31 O         -0.207802   4.644823   -6.508696 O.3        1 UNL1     -0.4436
     32 C         -0.259588   3.732848   -5.401225 C.3        1 UNL1     0.3143
     33 C         1.144039   3.17445   -5.281909 C.2        1 UNL1     0.2504
     34 C         -0.086925   5.424622   -9.250311 C.3        1 UNL1     -0.0327
     35 O         -0.501521   4.508973   -4.221245 O.2        1 UNL1     -0.4528
     36 C         -2.427186   2.243149   -1.86202 C.3        1 UNL1     0.0854
     37 C         -2.02677   0.828666   -1.290683 C.3        1 UNL1     0.0236
     38 C         -2.047952   0.715145   0.30882 C.3        1 UNL1     0.1131
     39 C         -1.287458   1.792434   1.182529 C.3        1 UNL1     0.0200
     40 C         0.239887   2.30524   0.75046 C.3        1 UNL1     0.0661
     41 C         1.553248   1.302476   0.366848 C.3        1 UNL1     0.0091
     42 C         2.944361   1.558272   -0.801388 C.3        1 UNL1     0.0661
     43 C         3.903021   2.31771   -9.434672 C.2        1 UNL1     0.2131
     44 O         3.908689   2.258885   -10.650915 O.2        1 UNL1     -0.2851
     45 O         2.32408   4.337902   -10.570742 O.3        1 UNL1     -0.5056
     46 O         1.702595   2.743908   -4.297783 O.2        1 UNL1     -0.2836
     47 C         4.482693   3.736203   -0.890642 C.3        1 UNL1     -0.0566
     48 O         3.984889   1.135007   0.166736 O.3        1 UNL1     -0.3909
     49 C         1.044674   -0.104676   0.146007 C.3        1 UNL1     -0.0577
     50 O         0.167508   3.378533   -0.166343 O.3        1 UNL1     -0.3910
     51 O         -2.582195   3.270891   -0.909576 O.3        1 UNL1     -0.3753
     52 C         -0.921543   0.142407   -2.158134 C.3        1 UNL1     -0.0564
     53 O         -2.011854   -0.698627   0.811086 O.3        1 UNL1     -0.4608
     54 C         -1.598389   -1.788238   0.090166 C.2        1 UNL1     0.3042
     55 O         -2.304949   -2.641673   -0.444865 O.2        1 UNL1     -0.2512
     56 C         -0.107805   -1.86692   -0.079198 C.3        1 UNL1     0.0332
     57 C         -2.353437   2.904848   1.611945 C.3        1 UNL1     -0.0567
     58 C         -1.216568   2.591959   -5.818467 C.3        1 UNL1     0.0210
     59 C         -3.93071   3.676291   -0.679305 C.3        1 UNL1     0.0372
     60 C         -1.525029   2.771921   -2.92111 C.2        1 UNL1     -0.0208
     61 C         -1.005303   3.989137   -3.085481 C.2        1 UNL1     0.0882
     62 H         3.189296   2.968979   -2.41472 H        1 UNL1     0.0365
     63 H         4.314683   3.214208   -4.101016 H        1 UNL1     0.0576
     64 H         7.158041   2.090536   -3.714423 H        1 UNL1     0.0615
     65 H         5.673999   3.322525   -6.171592 H        1 UNL1     0.0622
     66 H         -3.399162   2.079345   -2.34831 H        1 UNL1     0.0645
     67 H         -2.874094   0.177806   -1.568142 H        1 UNL1     0.0362
     68 H         -3.118484   0.894069   0.491765 H        1 UNL1     0.0741
     69 H         -1.130411   1.388631   2.173836 H        1 UNL1     0.0359
     70 H         0.559488   2.774234   1.700702 H        1 UNL1     0.0600
     71 H         2.023313   1.209127   1.365488 H        1 UNL1     0.0348
     72 H         2.531158   2.556988   -0.598541 H        1 UNL1     0.0602
     73 H         -1.413017   2.039933   -3.681961 H        1 UNL1     0.0628
     74 H         -1.025865   4.775558   -2.330263 H        1 UNL1     0.1022
     75 H         9.593071   2.234551   -6.645977 H        1 UNL1     0.0279
     76 H         8.87366   0.762493   -7.164429 H        1 UNL1     0.0279
     77 H         9.129931   2.152162   -8.295112 H        1 UNL1     0.0279
     78 H         6.623003   0.69514   -8.565123 H        1 UNL1     0.1553
     79 H         6.143421   -0.095885   -6.812837 H        1 UNL1     0.1484
     80 H         3.131696   -1.711889   -5.152253 H        1 UNL1     0.0317
     81 H         3.116718   -1.166098   -6.823125 H        1 UNL1     0.0317
     82 H         5.458375   -1.994392   -7.17565 H        1 UNL1     0.0428
     83 H         4.369403   -3.253633   -6.636988 H        1 UNL1     0.0428
     84 H         6.886343   -1.518635   -3.677607 H        1 UNL1     0.0428
     85 H         7.074682   -0.924972   -5.290436 H        1 UNL1     0.0428
     86 H         5.697803   0.453291   -3.731766 H        1 UNL1     0.0317
     87 H         4.559828   -0.789256   -3.479889 H        1 UNL1     0.0317
     88 H         7.077983   -3.625456   -6.257574 H        1 UNL1     0.0429
     89 H         7.361908   -3.688786   -4.516422 H        1 UNL1     0.0429
     90 H         5.527048   -5.307538   -6.264496 H        1 UNL1     0.0308
     91 H         7.030256   -5.787251   -3.636399 H        1 UNL1     0.0233
     92 H         5.910893   -6.980212   -4.343057 H        1 UNL1     0.0233
     93 H         7.364261   -6.517288   -5.202141 H        1 UNL1     0.0233
     94 H         4.032494   -5.710039   -4.173258 H        1 UNL1     0.0233
     95 H         4.565835   -4.088637   -3.703224 H        1 UNL1     0.0233
     96 H         3.702877   -4.329288   -5.239903 H        1 UNL1     0.0233
     97 H         0.294159   6.385237   -9.583812 H        1 UNL1     0.0280
     98 H         -0.507237   4.94196   -10.142293 H        1 UNL1     0.0280
     99 H         -0.9002   5.607064   -8.528928 H        1 UNL1     0.0280
     100 H         1.579322   4.327861   -11.145944 H        1 UNL1     0.2922
     101 H         3.710954   4.505423   -0.87125 H        1 UNL1     0.0236
     102 H         5.46812   4.150718   -1.100628 H        1 UNL1     0.0236
     103 H         4.545175   3.376168   0.149869 H        1 UNL1     0.0236
     104 H         3.528083   0.798778   0.962506 H        1 UNL1     0.2098
     105 H         1.45543   -0.598167   -0.731238 H        1 UNL1     0.0234
     106 H         1.118445   -0.757292   1.015821 H        1 UNL1     0.0234
     107 H         -0.0   0.0   0.0 H        1 UNL1     0.0234
     108 H         1.083199   3.659561   -0.356873 H        1 UNL1     0.2098
     109 H         -1.0662   -0.944455   -2.232423 H        1 UNL1     0.0234
     110 H         -0.835597   0.570133   -3.162826 H        1 UNL1     0.0234
     111 H         0.077582   0.280279   -1.723753 H        1 UNL1     0.0234
     112 H         0.152798   -2.744207   -0.679031 H        1 UNL1     0.0342
     113 H         0.303183   -0.958351   -0.51673 H        1 UNL1     0.0342
     114 H         0.344267   -1.991908   0.914368 H        1 UNL1     0.0342
     115 H         -2.142753   3.307841   2.612143 H        1 UNL1     0.0234
     116 H         -2.414756   3.750106   0.923593 H        1 UNL1     0.0234
     117 H         -3.372728   2.50607   1.753238 H        1 UNL1     0.0234
     118 H         -0.878513   1.609665   -5.444539 H        1 UNL1     0.0309
     119 H         -2.250203   2.760087   -5.499821 H        1 UNL1     0.0309
     120 H         -1.253219   2.449955   -6.9041 H        1 UNL1     0.0309
     121 H         -3.909469   4.7072   -0.326983 H        1 UNL1     0.0524
     122 H         -4.537701   3.652446   -1.599647 H        1 UNL1     0.0524
     123 H         -4.393978   3.035168   0.065301 H        1 UNL1     0.0524
@<TRIPOS>BOND
     1     1     2    1
     2     1    42    1
     3     2     3    2
     4     3     4    1
     5     4     5    2
     6     5     7    1
     7     6    75    1
     8     6    76    1
     9     6    77    1
    10     7     9   am
    11     9    10    1
    12    10    11    2
    13    10    43    1
    14    11    14    1
    15    11    15    1
    16    12    13   ar
    17    12    27   ar
    18    12    43    1
    19    13    14    1
    20    13    30   ar
    21    14    17    2
    22    15    16    1
    23    16    17    1
    24    16    18    1
    25    16    22    1
    26    18    19    1
    27    19    20    1
    28    20    21    1
    29    21    22    1
    30    23    24    1
    31    23    88    1
    32    23    89    1
    33    24    25    1
    34    24    26    1
    35    24    90    1
    36    25    91    1
    37    25    92    1
    38    25    93    1
    39    26    94    1
    40    26    95    1
    41    26    96    1
    42    27    28   ar
    43    28    29   ar
    44    29    30   ar
    45    29    31    1
    46    30    33    1
    47    31    32    1
    48    32    33    1
    49    32    35    1
    50    34    97    1
    51    34    98    1
    52    34    99    1
    53    35    61    1
    54    36    37    1
    55    36    60    1
    56    37    38    1
    57    38    39    1
    58    39    40    1
    59    40    41    1
    60    41    42    1
    61    45   100    1
    62    47   101    1
    63    47   102    1
    64    47   103    1
    65    48   104    1
    66    49   105    1
    67    49   106    1
    68    49   107    1
    69    50   108    1
    70    51    59    1
    71    52   109    1
    72    52   110    1
    73    52   111    1
    74    53    54    1
    75    54    55    2
    76    54    56    1
    77    56   112    1
    78    56   113    1
    79    56   114    1
    80    57   115    1
    81    57   116    1
    82    57   117    1
    83    58   118    1
    84    58   119    1
    85    58   120    1
    86    59   121    1
    87    59   122    1
    88    59   123    1
    89    60    61    2
    90     1    47    1
    91     1    62    1
    92     2    63    1
    93     3    64    1
    94     4    65    1
    95     5     6    1
    96     7     8    2
    97     9    78    1
    98    15    79    1
    99    18    80    1
   100    18    81    1
   101    19    82    1
   102    19    83    1
   103    20    23    1
   104    21    84    1
   105    21    85    1
   106    22    86    1
   107    22    87    1
   108    27    45    1
   109    28    34    1
   110    32    58    1
   111    33    46    2
   112    36    51    1
   113    36    66    1
   114    37    52    1
   115    37    67    1
   116    38    53    1
   117    38    68    1
   118    42    48    1
   119    42    72    1
   120    43    44    2
   121    60    73    1
   122    61    74    1
   123    39    69    1
   124    39    57    1
   125    40    70    1
   126    40    50    1
   127    41    71    1
   128    41    49    1
