@<TRIPOS>MOLECULE
*****
 123 128 0 0 0
SMALL
GASTEIGER

@<TRIPOS>ATOM
     1 C         5.063998   2.068316   0.277956 C.3        1 UNL1     0.0009
     2 C         6.506812   2.733009   -0.677821 C.2        1 UNL1     -0.0787
     3 C         7.822139   2.551454   -1.25488 C.2        1 UNL1     -0.0649
     4 C         8.685203   3.627237   -2.236801 C.2        1 UNL1     -0.0542
     5 C         9.736804   3.751769   -3.17792 C.2        1 UNL1     0.0115
     6 C         10.929312   3.004579   -3.835912 C.3        1 UNL1     -0.0348
     7 C         9.802252   5.063759   -4.100628 C.2        1 UNL1     0.2441
     8 O         10.573719   5.989033   -3.887949 O.2        1 UNL1     -0.2702
     9 N         9.10163   4.965059   -5.315345 N.am        1 UNL1     -0.2772
     10 C         7.790956   5.348277   -5.146238 C.2        1 UNL1     0.1049
     11 C         6.971341   4.426565   -4.674114 C.2        1 UNL1     0.0801
     12 C         6.363378   7.164369   -4.186463 C.ar        1 UNL1     0.0753
     13 C         5.629049   6.129587   -3.524198 C.ar        1 UNL1     0.0305
     14 C         5.828673   4.719731   -3.85208 C.2        1 UNL1     0.0924
     15 N         7.154156   3.103563   -4.523214 N.pl3        1 UNL1     -0.3170
     16 C         5.895441   2.528094   -4.129861 C.3        1 UNL1     0.1275
     17 N         5.175174   3.646276   -3.416693 N.2        1 UNL1     -0.2557
     18 C         5.102743   2.25949   -5.405472 C.3        1 UNL1     0.0016
     19 C         5.93765   1.377655   -6.320287 C.3        1 UNL1     0.0026
     20 N         6.243417   0.136555   -5.622286 N.3        1 UNL1     -0.3018
     21 C         6.951994   0.29665   -4.350808 C.3        1 UNL1     0.0026
     22 C         6.09338   1.181847   -3.445765 C.3        1 UNL1     0.0016
     23 C         6.773023   -0.888225   -6.499775 C.3        1 UNL1     0.0012
     24 C         5.677014   -1.40885   -7.442892 C.3        1 UNL1     -0.0339
     25 C         5.71876   -0.69295   -8.802966 C.3        1 UNL1     -0.0615
     26 C         5.797223   -2.914731   -7.599909 C.3        1 UNL1     -0.0615
     27 C         6.082798   8.509133   -3.956241 C.ar        1 UNL1     0.1347
     28 C         5.068691   8.939551   -3.119355 C.ar        1 UNL1     0.0342
     29 C         4.391382   7.904167   -2.440829 C.ar        1 UNL1     0.1435
     30 C         4.68564   6.553862   -2.633982 C.ar        1 UNL1     0.0774
     31 O         3.306824   8.154803   -1.675374 O.3        1 UNL1     -0.4436
     32 C         2.642353   6.887344   -1.561801 C.3        1 UNL1     0.3143
     33 C         3.718729   5.851554   -1.816294 C.2        1 UNL1     0.2504
     34 C         4.547262   10.345863   -3.016911 C.3        1 UNL1     -0.0327
     35 O         2.236403   6.740123   -0.195498 O.2        1 UNL1     -0.4528
     36 C         -0.904498   4.609925   -0.266862 C.3        1 UNL1     0.0854
     37 C         -1.115956   3.166456   -0.866198 C.3        1 UNL1     0.0236
     38 C         -1.703191   2.086444   0.163595 C.3        1 UNL1     0.1131
     39 C         -1.020405   1.898022   1.57801 C.3        1 UNL1     0.0200
     40 C         0.641348   1.847944   1.71405 C.3        1 UNL1     0.0661
     41 C         1.685636   0.884738   0.787063 C.3        1 UNL1     0.0091
     42 C         3.402646   1.195507   0.220755 C.3        1 UNL1     0.0661
     43 C         7.373772   6.757531   -5.194356 C.2        1 UNL1     0.2131
     44 O         7.771797   7.489951   -6.081978 O.2        1 UNL1     -0.2851
     45 O         6.874446   9.453752   -4.606184 O.3        1 UNL1     -0.5056
     46 O         3.776184   4.710457   -1.41573 O.2        1 UNL1     -0.2836
     47 C         5.40742   1.993041   1.790033 C.3        1 UNL1     -0.0566
     48 O         3.902433   -0.137163   0.637071 O.3        1 UNL1     -0.3909
     49 C         0.921992   0.338529   -0.398685 C.3        1 UNL1     -0.0577
     50 O         1.173111   3.151124   1.843184 O.3        1 UNL1     -0.3910
     51 O         -1.087782   4.731728   1.125618 O.3        1 UNL1     -0.3753
     52 C         -0.011693   2.803163   -1.911937 C.3        1 UNL1     -0.0564
     53 O         -2.220054   0.843339   -0.49963 O.3        1 UNL1     -0.4608
     54 C         -2.405648   -0.367336   0.114985 C.2        1 UNL1     0.3042
     55 O         -1.773378   -1.405726   -0.074271 O.2        1 UNL1     -0.2512
     56 C         -3.477752   -0.349577   1.167122 C.3        1 UNL1     0.0332
     57 C         -1.827296   2.796651   2.626613 C.3        1 UNL1     -0.0567
     58 C         1.611701   6.82906   -2.713273 C.3        1 UNL1     0.0210
     59 C         -1.513239   6.021295   1.563647 C.3        1 UNL1     0.0372
     60 C         0.408028   5.236191   -0.583448 C.2        1 UNL1     -0.0208
     61 C         1.26006   5.900277   0.198713 C.2        1 UNL1     0.0882
     62 H         4.545727   3.022119   0.12186 H        1 UNL1     0.0365
     63 H         6.194172   3.769012   -0.824188 H        1 UNL1     0.0576
     64 H         8.327931   1.583554   -1.233603 H        1 UNL1     0.0615
     65 H         8.14603   4.571857   -2.125129 H        1 UNL1     0.0622
     66 H         -1.66241   5.229855   -0.766165 H        1 UNL1     0.0645
     67 H         -1.962683   3.287327   -1.564055 H        1 UNL1     0.0362
     68 H         -2.682691   2.543688   0.371033 H        1 UNL1     0.0741
     69 H         -1.320539   0.941503   1.984703 H        1 UNL1     0.0359
     70 H         0.736717   1.408801   2.725543 H        1 UNL1     0.0600
     71 H         1.749134   -0.010983   1.435607 H        1 UNL1     0.0348
     72 H         3.230439   1.885435   1.0596 H        1 UNL1     0.0602
     73 H         0.567746   5.201155   -1.632501 H        1 UNL1     0.0628
     74 H         1.199428   5.934707   1.287003 H        1 UNL1     0.1022
     75 H         11.010229   1.965514   -3.434873 H        1 UNL1     0.0279
     76 H         10.864518   2.837242   -4.908698 H        1 UNL1     0.0279
     77 H         11.904612   3.424279   -3.548959 H        1 UNL1     0.0279
     78 H         9.099548   3.99748   -5.631359 H        1 UNL1     0.1553
     79 H         7.864835   2.581327   -5.001899 H        1 UNL1     0.1484
     80 H         4.153485   1.7777   -5.141741 H        1 UNL1     0.0317
     81 H         4.848453   3.196338   -5.912722 H        1 UNL1     0.0317
     82 H         6.857339   1.885116   -6.646737 H        1 UNL1     0.0428
     83 H         5.354439   1.200035   -7.22437 H        1 UNL1     0.0428
     84 H         7.098612   -0.642924   -3.809037 H        1 UNL1     0.0428
     85 H         7.970463   0.68253   -4.496183 H        1 UNL1     0.0428
     86 H         6.575039   1.167767   -2.485663 H        1 UNL1     0.0317
     87 H         5.128788   0.69659   -3.252933 H        1 UNL1     0.0317
     88 H         7.571397   -0.439961   -7.10554 H        1 UNL1     0.0429
     89 H         7.22544   -1.708373   -5.927542 H        1 UNL1     0.0429
     90 H         4.696177   -1.232741   -6.985554 H        1 UNL1     0.0308
     91 H         6.694741   -0.808961   -9.2837 H        1 UNL1     0.0233
     92 H         4.943231   -1.080777   -9.467611 H        1 UNL1     0.0233
     93 H         5.534195   0.384451   -8.713641 H        1 UNL1     0.0233
     94 H         5.147656   -3.263037   -8.410206 H        1 UNL1     0.0233
     95 H         6.826522   -3.18291   -7.854044 H        1 UNL1     0.0233
     96 H         5.51328   -3.435658   -6.681225 H        1 UNL1     0.0233
     97 H         3.721842   10.424304   -2.315655 H        1 UNL1     0.0280
     98 H         5.313237   11.04619   -2.659029 H        1 UNL1     0.0280
     99 H         4.193758   10.68133   -4.005644 H        1 UNL1     0.0280
     100 H         6.394082   10.08823   -5.108489 H        1 UNL1     0.2922
     101 H         4.539198   1.641751   2.347207 H        1 UNL1     0.0236
     102 H         5.797484   2.929179   2.188126 H        1 UNL1     0.0236
     103 H         6.194121   1.24912   1.999503 H        1 UNL1     0.0236
     104 H         4.284116   -0.042757   1.531708 H        1 UNL1     0.2098
     105 H         0.701658   1.073931   -1.16839 H        1 UNL1     0.0234
     106 H         1.353524   -0.557447   -0.844706 H        1 UNL1     0.0234
     107 H         0.0   -0.0   0.0 H        1 UNL1     0.0234
     108 H         0.982186   3.626082   1.011481 H        1 UNL1     0.2098
     109 H         0.997356   2.828916   -1.477347 H        1 UNL1     0.0234
     110 H         -0.178146   1.834103   -2.394596 H        1 UNL1     0.0234
     111 H         0.005816   3.51671   -2.746497 H        1 UNL1     0.0234
     112 H         -3.571012   -1.34123   1.620194 H        1 UNL1     0.0342
     113 H         -3.295158   0.410678   1.92509 H        1 UNL1     0.0342
     114 H         -4.432999   -0.110874   0.679589 H        1 UNL1     0.0342
     115 H         -2.881224   2.494357   2.697619 H        1 UNL1     0.0234
     116 H         -1.41245   2.780965   3.636418 H        1 UNL1     0.0234
     117 H         -1.928435   3.850896   2.316321 H        1 UNL1     0.0234
     118 H         0.673208   7.350878   -2.456481 H        1 UNL1     0.0309
     119 H         1.997721   7.229489   -3.656059 H        1 UNL1     0.0309
     120 H         1.281342   5.807383   -2.930407 H        1 UNL1     0.0309
     121 H         -0.732724   6.733786   1.298108 H        1 UNL1     0.0524
     122 H         -2.442482   6.346385   1.066796 H        1 UNL1     0.0524
     123 H         -1.669932   6.020322   2.638607 H        1 UNL1     0.0524
@<TRIPOS>BOND
     1     1     2    1
     2     1    42    1
     3     2     3    2
     4     3     4    1
     5     4     5    2
     6     5     7    1
     7     6    75    1
     8     6    76    1
     9     6    77    1
    10     7     9   am
    11     9    10    1
    12    10    11    2
    13    10    43    1
    14    11    14    1
    15    11    15    1
    16    12    13   ar
    17    12    27   ar
    18    12    43    1
    19    13    14    1
    20    13    30   ar
    21    14    17    2
    22    15    16    1
    23    16    17    1
    24    16    18    1
    25    16    22    1
    26    18    19    1
    27    19    20    1
    28    20    21    1
    29    21    22    1
    30    23    24    1
    31    23    88    1
    32    23    89    1
    33    24    25    1
    34    24    26    1
    35    24    90    1
    36    25    91    1
    37    25    92    1
    38    25    93    1
    39    26    94    1
    40    26    95    1
    41    26    96    1
    42    27    28   ar
    43    28    29   ar
    44    29    30   ar
    45    29    31    1
    46    30    33    1
    47    31    32    1
    48    32    33    1
    49    32    35    1
    50    34    97    1
    51    34    98    1
    52    34    99    1
    53    35    61    1
    54    36    37    1
    55    36    60    1
    56    37    38    1
    57    38    39    1
    58    39    40    1
    59    40    41    1
    60    41    42    1
    61    45   100    1
    62    47   101    1
    63    47   102    1
    64    47   103    1
    65    48   104    1
    66    49   105    1
    67    49   106    1
    68    49   107    1
    69    50   108    1
    70    51    59    1
    71    52   109    1
    72    52   110    1
    73    52   111    1
    74    53    54    1
    75    54    55    2
    76    54    56    1
    77    56   112    1
    78    56   113    1
    79    56   114    1
    80    57   115    1
    81    57   116    1
    82    57   117    1
    83    58   118    1
    84    58   119    1
    85    58   120    1
    86    59   121    1
    87    59   122    1
    88    59   123    1
    89    60    61    2
    90     1    47    1
    91     1    62    1
    92     2    63    1
    93     3    64    1
    94     4    65    1
    95     5     6    1
    96     7     8    2
    97     9    78    1
    98    15    79    1
    99    18    80    1
   100    18    81    1
   101    19    82    1
   102    19    83    1
   103    20    23    1
   104    21    84    1
   105    21    85    1
   106    22    86    1
   107    22    87    1
   108    27    45    1
   109    28    34    1
   110    32    58    1
   111    33    46    2
   112    36    51    1
   113    36    66    1
   114    37    52    1
   115    37    67    1
   116    38    53    1
   117    38    68    1
   118    42    48    1
   119    42    72    1
   120    43    44    2
   121    60    73    1
   122    61    74    1
   123    39    69    1
   124    39    57    1
   125    40    70    1
   126    40    50    1
   127    41    71    1
   128    41    49    1
