@<TRIPOS>MOLECULE
*****
 123 128 0 0 0
SMALL
GASTEIGER

@<TRIPOS>ATOM
     1 C         -2.067156   3.403269   -1.454521 C.3        1 UNL1     0.0009
     2 C         -3.689368   3.443955   -2.351075 C.2        1 UNL1     -0.0787
     3 C         -4.443483   3.602677   -3.576703 C.2        1 UNL1     -0.0649
     4 C         -6.106831   3.390052   -3.809984 C.2        1 UNL1     -0.0542
     5 C         -7.124339   3.155687   -4.767496 C.2        1 UNL1     0.0115
     6 C         -7.426649   3.092291   -6.289965 C.3        1 UNL1     -0.0348
     7 C         -8.553406   2.621908   -4.26766 C.2        1 UNL1     0.2441
     8 O         -9.533993   3.345559   -4.161332 O.2        1 UNL1     -0.2702
     9 N         -8.672242   1.222353   -4.210433 N.am        1 UNL1     -0.2772
     10 C         -8.25201   0.754384   -2.986615 C.2        1 UNL1     0.1049
     11 C         -6.950088   0.584122   -2.844368 C.2        1 UNL1     0.0801
     12 C         -8.511523   1.123469   -0.526175 C.ar        1 UNL1     0.0753
     13 C         -7.081979   1.139127   -0.457129 C.ar        1 UNL1     0.0305
     14 C         -6.256574   0.738469   -1.594332 C.2        1 UNL1     0.0924
     15 N         -5.971996   0.592567   -3.766209 N.pl3        1 UNL1     -0.3170
     16 C         -4.753504   0.186323   -3.117751 C.3        1 UNL1     0.1275
     17 N         -4.936608   0.598036   -1.677373 N.2        1 UNL1     -0.2557
     18 C         -4.725921   -1.339103   -3.121938 C.3        1 UNL1     0.0016
     19 C         -4.865702   -1.824105   -4.556101 C.3        1 UNL1     0.0026
     20 N         -3.768977   -1.278066   -5.343543 N.3        1 UNL1     -0.3018
     21 C         -3.675508   0.183301   -5.349875 C.3        1 UNL1     0.0026
     22 C         -3.531062   0.648444   -3.899816 C.3        1 UNL1     0.0016
     23 C         -3.636168   -1.911124   -6.640556 C.3        1 UNL1     0.0012
     24 C         -4.430395   -3.226133   -6.681921 C.3        1 UNL1     -0.0339
     25 C         -5.161819   -3.483352   -5.354173 C.3        1 UNL1     -0.0615
     26 C         -5.392246   -3.216844   -7.857309 C.3        1 UNL1     -0.0615
     27 C         -9.291311   1.389793   0.596821 C.ar        1 UNL1     0.1347
     28 C         -8.757435   1.644647   1.847452 C.ar        1 UNL1     0.0342
     29 C         -7.347957   1.703164   1.880768 C.ar        1 UNL1     0.1435
     30 C         -6.554337   1.474226   0.756057 C.ar        1 UNL1     0.0774
     31 O         -6.67531   1.832765   3.045137 O.3        1 UNL1     -0.4436
     32 C         -5.344603   1.384141   2.747094 C.3        1 UNL1     0.3143
     33 C         -5.195164   1.555099   1.248877 C.2        1 UNL1     0.2504
     34 C         -9.523039   1.689587   3.140484 C.3        1 UNL1     -0.0327
     35 O         -4.436449   2.304536   3.364657 O.2        1 UNL1     -0.4528
     36 C         -1.333213   0.291349   4.216179 C.3        1 UNL1     0.0854
     37 C         -0.402163   -0.554448   3.264708 C.3        1 UNL1     0.0236
     38 C         1.151601   -0.160677   3.314773 C.3        1 UNL1     0.1131
     39 C         1.583904   1.352009   3.149955 C.3        1 UNL1     0.0200
     40 C         0.87541   2.310884   1.983322 C.3        1 UNL1     0.0661
     41 C         0.690255   1.90992   0.345471 C.3        1 UNL1     0.0091
     42 C         -0.626309   2.362806   -0.849082 C.3        1 UNL1     0.0661
     43 C         -9.136512   0.726284   -1.812213 C.2        1 UNL1     0.2131
     44 O         -10.273205   0.29953   -1.904662 O.2        1 UNL1     -0.2851
     45 O         -10.675064   1.399433   0.433808 O.3        1 UNL1     -0.5056
     46 O         -4.184208   1.739029   0.60857 O.2        1 UNL1     -0.2836
     47 C         -1.512918   4.842458   -1.276937 C.3        1 UNL1     -0.0566
     48 O         0.32187   2.75608   -1.919319 O.3        1 UNL1     -0.3909
     49 C         0.953139   0.430576   0.172483 C.3        1 UNL1     -0.0577
     50 O         -0.31137   2.901871   2.473231 O.3        1 UNL1     -0.3910
     51 O         -0.725027   1.391234   4.854767 O.3        1 UNL1     -0.3753
     52 C         -1.122235   -0.928413   1.928072 C.3        1 UNL1     -0.0564
     53 O         2.051222   -1.184781   2.686904 O.3        1 UNL1     -0.4608
     54 C         3.395058   -1.313793   2.922257 C.2        1 UNL1     0.3042
     55 O         3.94272   -1.602923   3.985417 O.2        1 UNL1     -0.2512
     56 C         4.241373   -1.123872   1.69572 C.3        1 UNL1     0.0332
     57 C         1.756135   1.966903   4.616385 C.3        1 UNL1     -0.0567
     58 C         -5.30614   -0.124834   3.083316 C.3        1 UNL1     0.0210
     59 C         -1.321499   1.769522   6.094518 C.3        1 UNL1     0.0372
     60 C         -2.582518   0.798089   3.585613 C.2        1 UNL1     -0.0208
     61 C         -3.154622   2.001348   3.645694 C.2        1 UNL1     0.0882
     62 H         -2.605597   3.159092   -0.530849 H        1 UNL1     0.0365
     63 H         -4.385451   3.326643   -1.517903 H        1 UNL1     0.0576
     64 H         -3.947521   3.724494   -4.542255 H        1 UNL1     0.0615
     65 H         -6.510621   3.359495   -2.794355 H        1 UNL1     0.0622
     66 H         -1.653607   -0.4188   4.991474 H        1 UNL1     0.0645
     67 H         -0.38924   -1.557771   3.724854 H        1 UNL1     0.0362
     68 H         1.372032   -0.414592   4.362847 H        1 UNL1     0.0741
     69 H         2.631426   1.387381   2.881898 H        1 UNL1     0.0359
     70 H         1.605361   3.142249   1.950695 H        1 UNL1     0.0600
     71 H         1.621594   2.3455   -0.066639 H        1 UNL1     0.0348
     72 H         -0.696223   3.092759   -0.029572 H        1 UNL1     0.0602
     73 H         -3.094101   -0.010321   3.125174 H        1 UNL1     0.0628
     74 H         -2.673417   2.893565   4.047726 H        1 UNL1     0.1022
     75 H         -7.675684   2.047913   -6.597031 H        1 UNL1     0.0279
     76 H         -8.293149   3.651191   -6.636199 H        1 UNL1     0.0279
     77 H         -6.539878   3.294479   -6.908397 H        1 UNL1     0.0279
     78 H         -8.078253   0.799324   -4.920574 H        1 UNL1     0.1553
     79 H         -6.131971   0.469431   -4.749153 H        1 UNL1     0.1484
     80 H         -3.7853   -1.68091   -2.673421 H        1 UNL1     0.0317
     81 H         -5.533775   -1.746762   -2.504817 H        1 UNL1     0.0317
     82 H         -5.83893   -1.54623   -4.986826 H        1 UNL1     0.0428
     83 H         -4.84542   -2.914163   -4.53583 H        1 UNL1     0.0428
     84 H         -2.798207   0.564417   -5.881763 H        1 UNL1     0.0428
     85 H         -4.525205   0.645003   -5.871567 H        1 UNL1     0.0428
     86 H         -3.332513   1.702865   -3.952384 H        1 UNL1     0.0317
     87 H         -2.611509   0.238426   -3.464609 H        1 UNL1     0.0317
     88 H         -4.048074   -1.230121   -7.396772 H        1 UNL1     0.0429
     89 H         -2.581952   -2.076996   -6.897246 H        1 UNL1     0.0429
     90 H         -3.739598   -4.057306   -6.866754 H        1 UNL1     0.0308
     91 H         -6.234745   -3.290301   -5.447249 H        1 UNL1     0.0233
     92 H         -5.010162   -4.513312   -5.022826 H        1 UNL1     0.0233
     93 H         -4.792677   -2.843772   -4.543305 H        1 UNL1     0.0233
     94 H         -6.308493   -3.759105   -7.599859 H        1 UNL1     0.0233
     95 H         -5.667938   -2.188292   -8.106378 H        1 UNL1     0.0233
     96 H         -4.948801   -3.686935   -8.739544 H        1 UNL1     0.0233
     97 H         -8.866538   1.792433   3.999355 H        1 UNL1     0.0280
     98 H         -10.211377   2.543706   3.184381 H        1 UNL1     0.0280
     99 H         -10.103189   0.759736   3.25837 H        1 UNL1     0.0280
     100 H         -10.965876   1.632334   -0.430372 H        1 UNL1     0.2922
     101 H         -1.478641   5.095107   -0.217385 H        1 UNL1     0.0236
     102 H         -2.057776   5.58627   -1.857331 H        1 UNL1     0.0236
     103 H         -0.468157   4.929066   -1.619234 H        1 UNL1     0.0236
     104 H         1.226698   2.614821   -1.578286 H        1 UNL1     0.2098
     105 H         1.588138   0.183308   -0.67454 H        1 UNL1     0.0234
     106 H         1.305894   -0.077253   1.070035 H        1 UNL1     0.0234
     107 H         0.0   -0.0   0.0 H        1 UNL1     0.0234
     108 H         -0.663168   3.475765   1.765664 H        1 UNL1     0.2098
     109 H         -1.791785   -0.130033   1.578781 H        1 UNL1     0.0234
     110 H         -0.427313   -1.200721   1.126402 H        1 UNL1     0.0234
     111 H         -1.755745   -1.817796   2.044732 H        1 UNL1     0.0234
     112 H         4.350755   -0.056573   1.480648 H        1 UNL1     0.0342
     113 H         5.213684   -1.604982   1.790525 H        1 UNL1     0.0342
     114 H         3.722178   -1.587265   0.845503 H        1 UNL1     0.0342
     115 H         2.563651   2.710956   4.654995 H        1 UNL1     0.0234
     116 H         0.853847   2.440964   5.007782 H        1 UNL1     0.0234
     117 H         2.1065   1.233257   5.362675 H        1 UNL1     0.0234
     118 H         -4.754725   -0.327378   4.018155 H        1 UNL1     0.0309
     119 H         -6.301382   -0.575713   3.149683 H        1 UNL1     0.0309
     120 H         -4.758169   -0.708308   2.335392 H        1 UNL1     0.0309
     121 H         -0.523139   1.859351   6.830662 H        1 UNL1     0.0524
     122 H         -1.828595   2.746869   6.033824 H        1 UNL1     0.0524
     123 H         -2.039999   1.018538   6.410548 H        1 UNL1     0.0524
@<TRIPOS>BOND
     1     1     2    1
     2     1    42    1
     3     2     3    2
     4     3     4    1
     5     4     5    2
     6     5     7    1
     7     6    75    1
     8     6    76    1
     9     6    77    1
    10     7     9   am
    11     9    10    1
    12    10    11    2
    13    10    43    1
    14    11    14    1
    15    11    15    1
    16    12    13   ar
    17    12    27   ar
    18    12    43    1
    19    13    14    1
    20    13    30   ar
    21    14    17    2
    22    15    16    1
    23    16    17    1
    24    16    18    1
    25    16    22    1
    26    18    19    1
    27    19    20    1
    28    20    21    1
    29    21    22    1
    30    23    24    1
    31    23    88    1
    32    23    89    1
    33    24    25    1
    34    24    26    1
    35    24    90    1
    36    25    91    1
    37    25    92    1
    38    25    93    1
    39    26    94    1
    40    26    95    1
    41    26    96    1
    42    27    28   ar
    43    28    29   ar
    44    29    30   ar
    45    29    31    1
    46    30    33    1
    47    31    32    1
    48    32    33    1
    49    32    35    1
    50    34    97    1
    51    34    98    1
    52    34    99    1
    53    35    61    1
    54    36    37    1
    55    36    60    1
    56    37    38    1
    57    38    39    1
    58    39    40    1
    59    40    41    1
    60    41    42    1
    61    45   100    1
    62    47   101    1
    63    47   102    1
    64    47   103    1
    65    48   104    1
    66    49   105    1
    67    49   106    1
    68    49   107    1
    69    50   108    1
    70    51    59    1
    71    52   109    1
    72    52   110    1
    73    52   111    1
    74    53    54    1
    75    54    55    2
    76    54    56    1
    77    56   112    1
    78    56   113    1
    79    56   114    1
    80    57   115    1
    81    57   116    1
    82    57   117    1
    83    58   118    1
    84    58   119    1
    85    58   120    1
    86    59   121    1
    87    59   122    1
    88    59   123    1
    89    60    61    2
    90     1    47    1
    91     1    62    1
    92     2    63    1
    93     3    64    1
    94     4    65    1
    95     5     6    1
    96     7     8    2
    97     9    78    1
    98    15    79    1
    99    18    80    1
   100    18    81    1
   101    19    82    1
   102    19    83    1
   103    20    23    1
   104    21    84    1
   105    21    85    1
   106    22    86    1
   107    22    87    1
   108    27    45    1
   109    28    34    1
   110    32    58    1
   111    33    46    2
   112    36    51    1
   113    36    66    1
   114    37    52    1
   115    37    67    1
   116    38    53    1
   117    38    68    1
   118    42    48    1
   119    42    72    1
   120    43    44    2
   121    60    73    1
   122    61    74    1
   123    39    69    1
   124    39    57    1
   125    40    70    1
   126    40    50    1
   127    41    71    1
   128    41    49    1
