@<TRIPOS>MOLECULE
*****
 123 128 0 0 0
SMALL
GASTEIGER

@<TRIPOS>ATOM
     1 C         3.200947   4.2954   -1.146836 C.3        1 UNL1     0.0009
     2 C         3.310897   5.947358   -1.981093 C.2        1 UNL1     -0.0787
     3 C         3.736324   6.764731   -3.097766 C.2        1 UNL1     -0.0649
     4 C         3.403098   8.401159   -3.376016 C.2        1 UNL1     -0.0542
     5 C         3.344319   9.424013   -4.354479 C.2        1 UNL1     0.0115
     6 C         3.703139   9.779856   -5.823475 C.3        1 UNL1     -0.0348
     7 C         2.516221   10.760897   -4.032009 C.2        1 UNL1     0.2441
     8 O         3.050358   11.812428   -3.707193 O.2        1 UNL1     -0.2702
     9 N         1.16007   10.716737   -4.399507 N.am        1 UNL1     -0.2772
     10 C         0.401993   10.195552   -3.376273 C.2        1 UNL1     0.1049
     11 C         0.356226   8.877941   -3.29862 C.2        1 UNL1     0.0801
     12 C         -0.016283   10.393452   -0.917978 C.ar        1 UNL1     0.0753
     13 C         0.151297   8.973414   -0.854601 C.ar        1 UNL1     0.0305
     14 C         0.212451   8.155444   -2.063831 C.2        1 UNL1     0.0924
     15 N         0.758667   7.946197   -4.179768 N.pl3        1 UNL1     -0.3170
     16 C         0.327984   6.663515   -3.690389 C.3        1 UNL1     0.1275
     17 N         0.264506   6.832651   -2.192028 N.2        1 UNL1     -0.2557
     18 C         -1.111162   6.462193   -4.155179 C.3        1 UNL1     0.0016
     19 C         -1.158076   6.604931   -5.668128 C.3        1 UNL1     0.0026
     20 N         -0.272645   5.611233   -6.259402 N.3        1 UNL1     -0.3018
     21 C         1.123704   5.685522   -5.824592 C.3        1 UNL1     0.0026
     22 C         1.147633   5.535228   -4.30251 C.3        1 UNL1     0.0016
     23 C         -0.467653   5.460823   -7.687684 C.3        1 UNL1     0.0012
     24 C         -1.815557   4.78246   -7.978778 C.3        1 UNL1     -0.0339
     25 C         -2.695006   5.649099   -8.895054 C.3        1 UNL1     -0.0615
     26 C         -1.587016   3.400891   -8.566838 C.3        1 UNL1     -0.0615
     27 C         -0.194794   11.151397   0.236912 C.ar        1 UNL1     0.1347
     28 C         -0.262987   10.598805   1.50342 C.ar        1 UNL1     0.0342
     29 C         -0.046589   9.205054   1.545779 C.ar        1 UNL1     0.1435
     30 C         0.169497   8.437719   0.400474 C.ar        1 UNL1     0.0774
     31 O         -0.190686   8.503991   2.691533 O.3        1 UNL1     -0.4436
     32 C         -0.364692   7.144255   2.265252 C.3        1 UNL1     0.3143
     33 C         0.263478   7.077436   0.887882 C.2        1 UNL1     0.2504
     34 C         -0.700179   11.310364   2.753479 C.3        1 UNL1     -0.0327
     35 O         0.431823   6.32232   3.127364 O.2        1 UNL1     -0.4528
     36 C         -1.351874   2.977012   3.315588 C.3        1 UNL1     0.0854
     37 C         -1.754774   1.995683   2.14846 C.3        1 UNL1     0.0236
     38 C         -1.208581   0.496288   2.307303 C.3        1 UNL1     0.1131
     39 C         0.324859   0.246665   2.604827 C.3        1 UNL1     0.0200
     40 C         1.495478   1.107645   1.785801 C.3        1 UNL1     0.0661
     41 C         1.583537   1.313444   0.104283 C.3        1 UNL1     0.0091
     42 C         2.209848   2.721396   -0.89111 C.3        1 UNL1     0.0661
     43 C         -0.083259   11.021702   -2.260765 C.2        1 UNL1     0.2131
     44 O         -0.597394   12.105101   -2.472067 O.2        1 UNL1     -0.2851
     45 O         -0.304761   12.532759   0.091368 O.3        1 UNL1     -0.5056
     46 O         0.751765   6.121452   0.327949 O.2        1 UNL1     -0.2836
     47 C         4.577177   3.902186   -0.545709 C.3        1 UNL1     -0.0566
     48 O         3.017282   1.869411   -1.797359 O.3        1 UNL1     -0.3909
     49 C         0.267051   0.890807   -0.50869 C.3        1 UNL1     -0.0577
     50 O         1.764281   2.332828   2.437257 O.3        1 UNL1     -0.3910
     51 O         -0.428158   2.472442   4.253453 O.3        1 UNL1     -0.3753
     52 C         -1.79617   2.723057   0.764928 C.3        1 UNL1     -0.0564
     53 O         -1.880869   -0.487588   1.394975 O.3        1 UNL1     -0.4608
     54 C         -1.367196   -1.700306   1.016311 C.2        1 UNL1     0.3042
     55 O         -0.844411   -1.986754   -0.060016 O.2        1 UNL1     -0.2512
     56 C         -1.426931   -2.742494   2.096584 C.3        1 UNL1     0.0332
     57 C         0.488993   0.085209   4.187598 C.3        1 UNL1     -0.0567
     58 C         -1.888793   6.919925   2.129887 C.3        1 UNL1     0.0210
     59 C         -0.513557   3.056201   5.552606 C.3        1 UNL1     0.0372
     60 C         -0.835166   4.301009   2.87377 C.2        1 UNL1     -0.0208
     61 C         0.216286   5.003738   3.297285 C.2        1 UNL1     0.0882
     62 H         2.628181   4.763762   -0.337337 H        1 UNL1     0.0365
     63 H         2.866156   6.590421   -1.218764 H        1 UNL1     0.0576
     64 H         4.200657   6.326301   -3.983927 H        1 UNL1     0.0615
     65 H         3.021337   8.756443   -2.415019 H        1 UNL1     0.0622
     66 H         -2.294817   3.181893   3.841828 H        1 UNL1     0.0645
     67 H         -2.840473   1.849292   2.28406 H        1 UNL1     0.0362
     68 H         -1.735723   0.205132   3.228645 H        1 UNL1     0.0741
     69 H         0.565609   -0.777977   2.354713 H        1 UNL1     0.0359
     70 H         2.380637   0.479339   2.002097 H        1 UNL1     0.0600
     71 H         2.232069   0.455768   -0.161715 H        1 UNL1     0.0348
     72 H         2.647052   2.840198   0.110915 H        1 UNL1     0.0602
     73 H         -1.524594   4.735589   2.193271 H        1 UNL1     0.0628
     74 H         0.998822   4.611295   3.947565 H        1 UNL1     0.1022
     75 H         4.120706   8.88906   -6.351825 H        1 UNL1     0.0279
     76 H         2.876327   10.068551   -6.468538 H        1 UNL1     0.0279
     77 H         4.541401   10.488113   -5.896879 H        1 UNL1     0.0279
     78 H         1.044209   10.108244   -5.207214 H        1 UNL1     0.1553
     79 H         0.916797   8.131612   -5.15319 H        1 UNL1     0.1484
     80 H         -1.454748   5.470955   -3.835551 H        1 UNL1     0.0317
     81 H         -1.779624   7.192   -3.685933 H        1 UNL1     0.0317
     82 H         -0.884277   7.620502   -5.989939 H        1 UNL1     0.0428
     83 H         -2.193371   6.459539   -5.97809 H        1 UNL1     0.0428
     84 H         1.749968   4.880223   -6.22095 H        1 UNL1     0.0428
     85 H         1.613688   6.603222   -6.178228 H        1 UNL1     0.0428
     86 H         2.185407   5.460678   -4.035197 H        1 UNL1     0.0317
     87 H         0.740914   4.557668   -4.016063 H        1 UNL1     0.0317
     88 H         -0.475564   6.461782   -8.138586 H        1 UNL1     0.0429
     89 H         0.361499   4.907599   -8.147276 H        1 UNL1     0.0429
     90 H         -2.348105   4.621478   -7.033955 H        1 UNL1     0.0308
     91 H         -2.123406   6.038371   -9.7429 H        1 UNL1     0.0233
     92 H         -3.54591   5.075149   -9.269424 H        1 UNL1     0.0233
     93 H         -3.117107   6.515368   -8.371369 H        1 UNL1     0.0233
     94 H         -2.472888   3.07591   -9.123124 H        1 UNL1     0.0233
     95 H         -0.74289   3.425534   -9.261681 H        1 UNL1     0.0233
     96 H         -1.379878   2.664011   -7.785768 H        1 UNL1     0.0233
     97 H         -0.784772   10.634064   3.598875 H        1 UNL1     0.0280
     98 H         0.013978   12.086019   3.059415 H        1 UNL1     0.0280
     99 H         -1.683649   11.779364   2.586384 H        1 UNL1     0.0280
     100 H         -1.034256   12.917374   0.544724 H        1 UNL1     0.2922
     101 H         4.467608   3.01073   0.071508 H        1 UNL1     0.0236
     102 H         5.057563   4.717217   -0.005398 H        1 UNL1     0.0236
     103 H         5.302839   3.615505   -1.325082 H        1 UNL1     0.0236
     104 H         3.900296   1.762367   -1.39264 H        1 UNL1     0.2098
     105 H         -0.540918   1.605624   -0.374391 H        1 UNL1     0.0234
     106 H         0.32884   0.582175   -1.552172 H        1 UNL1     0.0234
     107 H         0.0   -0.0   0.0 H        1 UNL1     0.0234
     108 H         0.971447   2.894333   2.337784 H        1 UNL1     0.2098
     109 H         -0.82889   3.174149   0.503017 H        1 UNL1     0.0234
     110 H         -2.131541   2.075164   -0.052081 H        1 UNL1     0.0234
     111 H         -2.519555   3.549289   0.763544 H        1 UNL1     0.0234
     112 H         -0.983823   -3.676389   1.737639 H        1 UNL1     0.0342
     113 H         -0.945241   -2.408963   3.014503 H        1 UNL1     0.0342
     114 H         -2.483333   -2.937683   2.326974 H        1 UNL1     0.0342
     115 H         -0.197463   -0.670071   4.594439 H        1 UNL1     0.0234
     116 H         1.498596   -0.184279   4.504026 H        1 UNL1     0.0234
     117 H         0.181692   0.980308   4.755317 H        1 UNL1     0.0234
     118 H         -2.293286   6.310783   2.957134 H        1 UNL1     0.0309
     119 H         -2.456117   7.853593   2.061988 H        1 UNL1     0.0309
     120 H         -2.150786   6.34036   1.23794 H        1 UNL1     0.0309
     121 H         0.465517   2.96177   6.02149 H        1 UNL1     0.0524
     122 H         -0.760594   4.130194   5.513266 H        1 UNL1     0.0524
     123 H         -1.264647   2.543174   6.146544 H        1 UNL1     0.0524
@<TRIPOS>BOND
     1     1     2    1
     2     1    42    1
     3     2     3    2
     4     3     4    1
     5     4     5    2
     6     5     7    1
     7     6    75    1
     8     6    76    1
     9     6    77    1
    10     7     9   am
    11     9    10    1
    12    10    11    2
    13    10    43    1
    14    11    14    1
    15    11    15    1
    16    12    13   ar
    17    12    27   ar
    18    12    43    1
    19    13    14    1
    20    13    30   ar
    21    14    17    2
    22    15    16    1
    23    16    17    1
    24    16    18    1
    25    16    22    1
    26    18    19    1
    27    19    20    1
    28    20    21    1
    29    21    22    1
    30    23    24    1
    31    23    88    1
    32    23    89    1
    33    24    25    1
    34    24    26    1
    35    24    90    1
    36    25    91    1
    37    25    92    1
    38    25    93    1
    39    26    94    1
    40    26    95    1
    41    26    96    1
    42    27    28   ar
    43    28    29   ar
    44    29    30   ar
    45    29    31    1
    46    30    33    1
    47    31    32    1
    48    32    33    1
    49    32    35    1
    50    34    97    1
    51    34    98    1
    52    34    99    1
    53    35    61    1
    54    36    37    1
    55    36    60    1
    56    37    38    1
    57    38    39    1
    58    39    40    1
    59    40    41    1
    60    41    42    1
    61    45   100    1
    62    47   101    1
    63    47   102    1
    64    47   103    1
    65    48   104    1
    66    49   105    1
    67    49   106    1
    68    49   107    1
    69    50   108    1
    70    51    59    1
    71    52   109    1
    72    52   110    1
    73    52   111    1
    74    53    54    1
    75    54    55    2
    76    54    56    1
    77    56   112    1
    78    56   113    1
    79    56   114    1
    80    57   115    1
    81    57   116    1
    82    57   117    1
    83    58   118    1
    84    58   119    1
    85    58   120    1
    86    59   121    1
    87    59   122    1
    88    59   123    1
    89    60    61    2
    90     1    47    1
    91     1    62    1
    92     2    63    1
    93     3    64    1
    94     4    65    1
    95     5     6    1
    96     7     8    2
    97     9    78    1
    98    15    79    1
    99    18    80    1
   100    18    81    1
   101    19    82    1
   102    19    83    1
   103    20    23    1
   104    21    84    1
   105    21    85    1
   106    22    86    1
   107    22    87    1
   108    27    45    1
   109    28    34    1
   110    32    58    1
   111    33    46    2
   112    36    51    1
   113    36    66    1
   114    37    52    1
   115    37    67    1
   116    38    53    1
   117    38    68    1
   118    42    48    1
   119    42    72    1
   120    43    44    2
   121    60    73    1
   122    61    74    1
   123    39    69    1
   124    39    57    1
   125    40    70    1
   126    40    50    1
   127    41    71    1
   128    41    49    1
