@<TRIPOS>MOLECULE
*****
 123 128 0 0 0
SMALL
GASTEIGER

@<TRIPOS>ATOM
     1 C         3.157445   3.06191   0.855563 C.3        1 UNL1     0.0009
     2 C         3.317409   4.228263   2.287718 C.2        1 UNL1     -0.0787
     3 C         3.293168   5.574374   2.820111 C.2        1 UNL1     -0.0649
     4 C         3.414445   6.055527   4.438796 C.2        1 UNL1     -0.0542
     5 C         3.161127   7.100187   5.361615 C.2        1 UNL1     0.0115
     6 C         2.741571   8.590561   5.488431 C.3        1 UNL1     -0.0348
     7 C         3.136544   6.761738   6.930639 C.2        1 UNL1     0.2441
     8 O         4.067257   7.01935   7.681595 O.2        1 UNL1     -0.2702
     9 N         1.877525   6.389721   7.433259 N.am        1 UNL1     -0.2772
     10 C         1.690718   5.03263   7.303918 C.2        1 UNL1     0.1049
     11 C         1.270993   4.612703   6.124209 C.2        1 UNL1     0.0801
     12 C         2.790162   2.828517   7.740315 C.ar        1 UNL1     0.0753
     13 C         2.49324   2.499565   6.379346 C.ar        1 UNL1     0.0305
     14 C         1.607578   3.330673   5.566996 C.2        1 UNL1     0.0924
     15 N         0.791675   5.309589   5.079636 N.pl3        1 UNL1     -0.3170
     16 C         0.314769   4.366081   4.10362 C.3        1 UNL1     0.1275
     17 N         1.147729   3.129076   4.335402 N.2        1 UNL1     -0.2557
     18 C         -1.112683   3.994621   4.49362 C.3        1 UNL1     0.0016
     19 C         -1.937337   5.268231   4.59086 C.3        1 UNL1     0.0026
     20 N         -1.905719   5.945516   3.301941 N.3        1 UNL1     -0.3018
     21 C         -0.568899   6.288828   2.812637 C.3        1 UNL1     0.0026
     22 C         0.240685   4.994394   2.718239 C.3        1 UNL1     0.0016
     23 C         -2.89252   7.00171   3.195528 C.3        1 UNL1     0.0012
     24 C         -2.388764   8.117941   2.26708 C.3        1 UNL1     -0.0339
     25 C         -3.514426   8.649663   1.364743 C.3        1 UNL1     -0.0615
     26 C         -1.755906   9.229979   3.085397 C.3        1 UNL1     -0.0615
     27 C         3.536204   1.969802   8.544148 C.ar        1 UNL1     0.1347
     28 C         4.003475   0.741424   8.111952 C.ar        1 UNL1     0.0342
     29 C         3.740989   0.460636   6.754225 C.ar        1 UNL1     0.1435
     30 C         3.026058   1.327475   5.926769 C.ar        1 UNL1     0.0774
     31 O         4.035146   -0.741953   6.213617 O.3        1 UNL1     -0.4436
     32 C         3.225141   -0.815701   5.030686 C.3        1 UNL1     0.3143
     33 C         2.925976   0.624092   4.665023 C.2        1 UNL1     0.2504
     34 C         4.588253   -0.335544   8.982743 C.3        1 UNL1     -0.0327
     35 O         4.046208   -1.349793   3.984814 O.2        1 UNL1     -0.4528
     36 C         1.694541   -3.228739   1.672388 C.3        1 UNL1     0.0854
     37 C         0.422601   -2.702226   0.902665 C.3        1 UNL1     0.0236
     38 C         0.443498   -2.944526   -0.682453 C.3        1 UNL1     0.1131
     39 C         1.704808   -2.501181   -1.527919 C.3        1 UNL1     0.0200
     40 C         2.431477   -1.025516   -1.250782 C.3        1 UNL1     0.0661
     41 C         1.637952   0.470867   -1.157151 C.3        1 UNL1     0.0091
     42 C         2.026547   1.963864   -0.1645 C.3        1 UNL1     0.0661
     43 C         2.201493   4.07307   8.294225 C.2        1 UNL1     0.2131
     44 O         2.041331   4.269807   9.485183 O.2        1 UNL1     -0.2851
     45 O         3.819497   2.385793   9.843431 O.3        1 UNL1     -0.5056
     46 O         2.682008   1.089434   3.574249 O.2        1 UNL1     -0.2836
     47 C         4.418938   3.138693   -0.045947 C.3        1 UNL1     -0.0566
     48 O         1.870393   2.901017   -1.303129 O.3        1 UNL1     -0.3909
     49 C         0.151169   0.22733   -1.02425 C.3        1 UNL1     -0.0577
     50 O         3.394926   -1.126738   -0.221587 O.3        1 UNL1     -0.3910
     51 O         2.758085   -3.683244   0.866328 O.3        1 UNL1     -0.3753
     52 C         -0.136747   -1.386109   1.535054 C.3        1 UNL1     -0.0564
     53 O         -0.895621   -2.763473   -1.335374 O.3        1 UNL1     -0.4608
     54 C         -1.258464   -1.703862   -2.124992 C.2        1 UNL1     0.3042
     55 O         -1.675804   -1.742892   -3.281773 O.2        1 UNL1     -0.2512
     56 C         -1.168039   -0.375994   -1.428354 C.3        1 UNL1     0.0332
     57 C         2.651977   -3.780036   -1.687836 C.3        1 UNL1     -0.0567
     58 C         1.906748   -1.509247   5.445854 C.3        1 UNL1     0.0210
     59 C         3.918017   -4.101489   1.584309 C.3        1 UNL1     0.0372
     60 C         2.277185   -2.272113   2.652465 C.2        1 UNL1     -0.0208
     61 C         3.546656   -1.930355   2.87694 C.2        1 UNL1     0.0882
     62 H         3.316053   2.223935   1.545021 H        1 UNL1     0.0365
     63 H         3.605016   3.536681   3.082366 H        1 UNL1     0.0576
     64 H         3.018657   6.430448   2.199717 H        1 UNL1     0.0615
     65 H         3.766719   5.156719   4.952148 H        1 UNL1     0.0622
     66 H         1.326968   -4.079311   2.263543 H        1 UNL1     0.0645
     67 H         -0.384167   -3.386223   1.218627 H        1 UNL1     0.0362
     68 H         0.452501   -4.045038   -0.700208 H        1 UNL1     0.0741
     69 H         1.419365   -2.433088   -2.569213 H        1 UNL1     0.0359
     70 H         3.027067   -0.928994   -2.178692 H        1 UNL1     0.0600
     71 H         1.711191   0.79494   -2.213829 H        1 UNL1     0.0348
     72 H         2.953938   1.373996   -0.200792 H        1 UNL1     0.0602
     73 H         1.51296   -1.934484   3.30761 H        1 UNL1     0.0628
     74 H         4.379407   -2.186365   2.221026 H        1 UNL1     0.1022
     75 H         2.379377   8.809281   6.521877 H        1 UNL1     0.0279
     76 H         3.528741   9.329202   5.354853 H        1 UNL1     0.0279
     77 H         1.851086   8.834028   4.89055 H        1 UNL1     0.0279
     78 H         1.145397   6.85209   6.898206 H        1 UNL1     0.1553
     79 H         0.43613   6.245281   5.150365 H        1 UNL1     0.1484
     80 H         -1.52181   3.30899   3.741761 H        1 UNL1     0.0317
     81 H         -1.130552   3.459103   5.448896 H        1 UNL1     0.0317
     82 H         -1.575137   5.927497   5.393413 H        1 UNL1     0.0428
     83 H         -2.950938   4.980537   4.871743 H        1 UNL1     0.0428
     84 H         -0.567715   6.723794   1.808339 H        1 UNL1     0.0428
     85 H         -0.08992   7.056238   3.436319 H        1 UNL1     0.0428
     86 H         1.161309   5.263306   2.234373 H        1 UNL1     0.0317
     87 H         -0.230819   4.308811   2.003568 H        1 UNL1     0.0317
     88 H         -3.806149   6.57321   2.763135 H        1 UNL1     0.0429
     89 H         -3.15976   7.398746   4.183313 H        1 UNL1     0.0429
     90 H         -1.588637   7.721913   1.630549 H        1 UNL1     0.0308
     91 H         -4.283707   9.163121   1.94927 H        1 UNL1     0.0233
     92 H         -3.116074   9.336548   0.614334 H        1 UNL1     0.0233
     93 H         -4.018121   7.849015   0.809684 H        1 UNL1     0.0233
     94 H         -2.511132   9.711782   3.715742 H        1 UNL1     0.0233
     95 H         -0.982875   8.818387   3.740361 H        1 UNL1     0.0233
     96 H         -1.305301   9.991481   2.442717 H        1 UNL1     0.0233
     97 H         5.588922   -0.615812   8.66756 H        1 UNL1     0.0280
     98 H         4.681005   -0.016754   10.029178 H        1 UNL1     0.0280
     99 H         3.948689   -1.232342   8.940238 H        1 UNL1     0.0280
     100 H         3.062559   2.50944   10.388754 H        1 UNL1     0.2922
     101 H         4.68223   2.140673   -0.395646 H        1 UNL1     0.0236
     102 H         5.259314   3.638664   0.43445 H        1 UNL1     0.0236
     103 H         4.235742   3.71836   -0.966066 H        1 UNL1     0.0236
     104 H         2.739505   2.977807   -1.743263 H        1 UNL1     0.2098
     105 H         -0.468313   1.08639   -1.269342 H        1 UNL1     0.0234
     106 H         -0.212802   -0.660615   -1.540976 H        1 UNL1     0.0234
     107 H         0.0   -0.0   0.0 H        1 UNL1     0.0234
     108 H         3.567948   -0.222326   0.10379 H        1 UNL1     0.2098
     109 H         0.221099   -0.488403   1.011813 H        1 UNL1     0.0234
     110 H         -1.230486   -1.366301   1.590604 H        1 UNL1     0.0234
     111 H         0.184944   -1.26997   2.578593 H        1 UNL1     0.0234
     112 H         -1.192205   0.433011   -2.164746 H        1 UNL1     0.0342
     113 H         -1.952455   -0.249976   -0.683602 H        1 UNL1     0.0342
     114 H         -0.202493   -0.327475   -0.906309 H        1 UNL1     0.0342
     115 H         2.104104   -4.647408   -2.081141 H        1 UNL1     0.0234
     116 H         3.514828   -3.615129   -2.336176 H        1 UNL1     0.0234
     117 H         3.019538   -4.178215   -0.726434 H        1 UNL1     0.0234
     118 H         1.074711   -1.260099   4.764205 H        1 UNL1     0.0309
     119 H         1.997805   -2.597758   5.516952 H        1 UNL1     0.0309
     120 H         1.543211   -1.170944   6.422327 H        1 UNL1     0.0309
     121 H         4.760812   -3.51493   1.219615 H        1 UNL1     0.0524
     122 H         3.828785   -3.916359   2.66773 H        1 UNL1     0.0524
     123 H         4.099571   -5.16005   1.421276 H        1 UNL1     0.0524
@<TRIPOS>BOND
     1     1     2    1
     2     1    42    1
     3     2     3    2
     4     3     4    1
     5     4     5    2
     6     5     7    1
     7     6    75    1
     8     6    76    1
     9     6    77    1
    10     7     9   am
    11     9    10    1
    12    10    11    2
    13    10    43    1
    14    11    14    1
    15    11    15    1
    16    12    13   ar
    17    12    27   ar
    18    12    43    1
    19    13    14    1
    20    13    30   ar
    21    14    17    2
    22    15    16    1
    23    16    17    1
    24    16    18    1
    25    16    22    1
    26    18    19    1
    27    19    20    1
    28    20    21    1
    29    21    22    1
    30    23    24    1
    31    23    88    1
    32    23    89    1
    33    24    25    1
    34    24    26    1
    35    24    90    1
    36    25    91    1
    37    25    92    1
    38    25    93    1
    39    26    94    1
    40    26    95    1
    41    26    96    1
    42    27    28   ar
    43    28    29   ar
    44    29    30   ar
    45    29    31    1
    46    30    33    1
    47    31    32    1
    48    32    33    1
    49    32    35    1
    50    34    97    1
    51    34    98    1
    52    34    99    1
    53    35    61    1
    54    36    37    1
    55    36    60    1
    56    37    38    1
    57    38    39    1
    58    39    40    1
    59    40    41    1
    60    41    42    1
    61    45   100    1
    62    47   101    1
    63    47   102    1
    64    47   103    1
    65    48   104    1
    66    49   105    1
    67    49   106    1
    68    49   107    1
    69    50   108    1
    70    51    59    1
    71    52   109    1
    72    52   110    1
    73    52   111    1
    74    53    54    1
    75    54    55    2
    76    54    56    1
    77    56   112    1
    78    56   113    1
    79    56   114    1
    80    57   115    1
    81    57   116    1
    82    57   117    1
    83    58   118    1
    84    58   119    1
    85    58   120    1
    86    59   121    1
    87    59   122    1
    88    59   123    1
    89    60    61    2
    90     1    47    1
    91     1    62    1
    92     2    63    1
    93     3    64    1
    94     4    65    1
    95     5     6    1
    96     7     8    2
    97     9    78    1
    98    15    79    1
    99    18    80    1
   100    18    81    1
   101    19    82    1
   102    19    83    1
   103    20    23    1
   104    21    84    1
   105    21    85    1
   106    22    86    1
   107    22    87    1
   108    27    45    1
   109    28    34    1
   110    32    58    1
   111    33    46    2
   112    36    51    1
   113    36    66    1
   114    37    52    1
   115    37    67    1
   116    38    53    1
   117    38    68    1
   118    42    48    1
   119    42    72    1
   120    43    44    2
   121    60    73    1
   122    61    74    1
   123    39    69    1
   124    39    57    1
   125    40    70    1
   126    40    50    1
   127    41    71    1
   128    41    49    1
