@<TRIPOS>MOLECULE
*****
 123 128 0 0 0
SMALL
GASTEIGER

@<TRIPOS>ATOM
     1 C         2.752365   -4.184831   -2.21888 C.3        1 UNL1     0.0009
     2 C         2.710639   -5.983561   -2.665946 C.2        1 UNL1     -0.0787
     3 C         3.082808   -7.355279   -2.390402 C.2        1 UNL1     -0.0649
     4 C         2.583362   -8.752747   -3.20526 C.2        1 UNL1     -0.0542
     5 C         2.447384   -10.160351   -3.120186 C.2        1 UNL1     0.0115
     6 C         2.815694   -11.409472   -2.27321 C.3        1 UNL1     -0.0348
     7 C         1.468209   -10.909773   -4.148082 C.2        1 UNL1     0.2441
     8 O         1.873328   -11.523992   -5.125394 O.2        1 UNL1     -0.2702
     9 N         0.138352   -11.034822   -3.709909 N.am        1 UNL1     -0.2772
     10 C         -0.593294   -9.927798   -4.073933 C.2        1 UNL1     0.1049
     11 C         -0.498139   -8.879272   -3.276586 C.2        1 UNL1     0.0801
     12 C         -1.114923   -8.447582   -6.021803 C.ar        1 UNL1     0.0753
     13 C         -0.796183   -7.343835   -5.168131 C.ar        1 UNL1     0.0305
     14 C         -0.604876   -7.519032   -3.73016 C.2        1 UNL1     0.0924
     15 N         0.033316   -8.774905   -2.046468 N.pl3        1 UNL1     -0.3170
     16 C         -0.271894   -7.460898   -1.545982 C.3        1 UNL1     0.1275
     17 N         -0.404893   -6.606828   -2.783156 N.2        1 UNL1     -0.2557
     18 C         -1.663765   -7.525772   -0.924542 C.3        1 UNL1     0.0016
     19 C         -1.673854   -8.618266   0.132787 C.3        1 UNL1     0.0026
     20 N         -0.665795   -8.306921   1.136734 N.3        1 UNL1     -0.3018
     21 C         0.698405   -8.163106   0.624246 C.3        1 UNL1     0.0026
     22 C         0.686166   -7.057563   -0.432883 C.3        1 UNL1     0.0016
     23 C         -0.794042   -9.113864   2.33383 C.3        1 UNL1     0.0012
     24 C         -2.049361   -8.710573   3.123315 C.3        1 UNL1     -0.0339
     25 C         -1.814437   -8.805165   4.639863 C.3        1 UNL1     -0.0615
     26 C         -2.497911   -7.318769   2.71287 C.3        1 UNL1     -0.0615
     27 C         -1.414425   -8.25547   -7.368469 C.ar        1 UNL1     0.1347
     28 C         -1.465642   -7.007383   -7.963201 C.ar        1 UNL1     0.0342
     29 C         -1.100537   -5.940141   -7.115348 C.ar        1 UNL1     0.1435
     30 C         -0.763015   -6.121161   -5.773509 C.ar        1 UNL1     0.0774
     31 O         -1.206863   -4.654182   -7.51536 O.3        1 UNL1     -0.4436
     32 C         -1.217194   -3.89506   -6.29696 C.3        1 UNL1     0.3143
     33 C         -0.538478   -4.781353   -5.272244 C.2        1 UNL1     0.2504
     34 C         -2.020364   -6.702584   -9.326829 C.3        1 UNL1     -0.0327
     35 O         -0.366144   -2.759456   -6.495378 O.2        1 UNL1     -0.4528
     36 C         -1.780861   -0.00299   -4.302536 C.3        1 UNL1     0.0854
     37 C         -2.034262   0.000543   -2.745841 C.3        1 UNL1     0.0236
     38 C         -1.334033   1.203789   -1.949837 C.3        1 UNL1     0.1131
     39 C         0.206312   1.494387   -2.162346 C.3        1 UNL1     0.0200
     40 C         1.303829   0.239247   -2.212512 C.3        1 UNL1     0.0661
     41 C         1.426773   -1.019007   -1.081454 C.3        1 UNL1     0.0091
     42 C         1.930117   -2.769652   -1.298915 C.3        1 UNL1     0.0661
     43 C         -1.203597   -9.794475   -5.405139 C.2        1 UNL1     0.2131
     44 O         -1.824931   -10.719717   -5.895656 O.2        1 UNL1     -0.2851
     45 O         -1.668895   -9.387101   -8.140541 O.3        1 UNL1     -0.5056
     46 O         0.069849   -4.454176   -4.277887 O.2        1 UNL1     -0.2836
     47 C         4.141699   -3.578181   -2.553107 C.3        1 UNL1     -0.0566
     48 O         2.85611   -2.766233   -0.140623 O.3        1 UNL1     -0.3909
     49 C         0.185927   -1.020828   -0.216704 C.3        1 UNL1     -0.0577
     50 O         1.415226   -0.276979   -3.523552 O.3        1 UNL1     -0.3910
     51 O         -0.840561   0.934734   -4.775759 O.3        1 UNL1     -0.3753
     52 C         -2.106901   -1.449343   -2.164891 C.3        1 UNL1     -0.0564
     53 O         -1.863551   1.39174   -0.558215 O.3        1 UNL1     -0.4608
     54 C         -1.221616   2.056382   0.453762 C.2        1 UNL1     0.3042
     55 O         -1.713065   2.848985   1.256318 O.2        1 UNL1     -0.2512
     56 C         0.230687   1.695101   0.584175 C.3        1 UNL1     0.0332
     57 C         0.332489   2.639551   -3.271785 C.3        1 UNL1     -0.0567
     58 C         -2.702295   -3.722436   -5.901728 C.3        1 UNL1     0.0210
     59 C         -1.399117   2.032298   -5.496339 C.3        1 UNL1     0.0372
     60 C         -1.396317   -1.322324   -4.874063 C.2        1 UNL1     -0.0208
     61 C         -0.442719   -1.639774   -5.750774 C.2        1 UNL1     0.0882
     62 H         2.104557   -3.975776   -3.078735 H        1 UNL1     0.0365
     63 H         2.172643   -5.944923   -3.615439 H        1 UNL1     0.0576
     64 H         3.622274   -7.630464   -1.48136 H        1 UNL1     0.0615
     65 H         2.132397   -8.370883   -4.125202 H        1 UNL1     0.0622
     66 H         -2.758033   0.242405   -4.74181 H        1 UNL1     0.0645
     67 H         -3.101619   0.26483   -2.64857 H        1 UNL1     0.0362
     68 H         -1.857763   2.056712   -2.407825 H        1 UNL1     0.0741
     69 H         0.565527   2.090508   -1.334087 H        1 UNL1     0.0359
     70 H         2.244102   0.801763   -2.055912 H        1 UNL1     0.0600
     71 H         2.173498   -0.583848   -0.388636 H        1 UNL1     0.0348
     72 H         2.317079   -2.231608   -2.17646 H        1 UNL1     0.0602
     73 H         -2.105099   -2.05328   -4.573098 H        1 UNL1     0.0628
     74 H         0.355021   -0.965959   -6.065133 H        1 UNL1     0.1022
     75 H         3.900381   -11.397351   -2.007993 H        1 UNL1     0.0279
     76 H         2.337488   -11.493882   -1.299936 H        1 UNL1     0.0279
     77 H         2.742501   -12.346869   -2.843852 H        1 UNL1     0.0279
     78 H         0.117207   -11.09551   -2.694061 H        1 UNL1     0.1553
     79 H         0.203733   -9.559793   -1.444936 H        1 UNL1     0.1484
     80 H         -1.908303   -6.547901   -0.492413 H        1 UNL1     0.0317
     81 H         -2.423374   -7.730503   -1.686599 H        1 UNL1     0.0317
     82 H         -1.501218   -9.611747   -0.306652 H        1 UNL1     0.0428
     83 H         -2.675917   -8.648583   0.561738 H        1 UNL1     0.0428
     84 H         1.421795   -7.851252   1.384026 H        1 UNL1     0.0428
     85 H         1.097553   -9.116431   0.251193 H        1 UNL1     0.0428
     86 H         1.716079   -6.889126   -0.68763 H        1 UNL1     0.0317
     87 H         0.378562   -6.107886   0.021639 H        1 UNL1     0.0317
     88 H         -0.895249   -10.163644   2.028851 H        1 UNL1     0.0429
     89 H         0.105672   -9.045845   2.958859 H        1 UNL1     0.0429
     90 H         -2.873534   -9.382141   2.855081 H        1 UNL1     0.0308
     91 H         -0.861753   -8.348271   4.924019 H        1 UNL1     0.0233
     92 H         -2.623896   -8.316671   5.187366 H        1 UNL1     0.0233
     93 H         -1.787984   -9.84266   4.994462 H        1 UNL1     0.0233
     94 H         -2.942374   -7.344982   1.71207 H        1 UNL1     0.0233
     95 H         -3.256475   -6.950198   3.409072 H        1 UNL1     0.0233
     96 H         -1.659441   -6.616786   2.700334 H        1 UNL1     0.0233
     97 H         -2.834376   -5.985071   -9.284516 H        1 UNL1     0.0280
     98 H         -1.265789   -6.262158   -9.991583 H        1 UNL1     0.0280
     99 H         -2.400452   -7.629685   -9.786298 H        1 UNL1     0.0280
     100 H         -2.567742   -9.665835   -8.142322 H        1 UNL1     0.2922
     101 H         4.070791   -2.972577   -3.456363 H        1 UNL1     0.0236
     102 H         4.930501   -4.326416   -2.623248 H        1 UNL1     0.0236
     103 H         4.486518   -2.878577   -1.77346 H        1 UNL1     0.0236
     104 H         3.7332   -2.4826   -0.465023 H        1 UNL1     0.2098
     105 H         -0.699126   -1.424479   -0.702047 H        1 UNL1     0.0234
     106 H         0.316773   -1.472542   0.766536 H        1 UNL1     0.0234
     107 H         0.0   0.0   0.0 H        1 UNL1     0.0234
     108 H         1.879235   -1.133924   -3.459451 H        1 UNL1     0.2098
     109 H         -2.925617   -2.034093   -2.607028 H        1 UNL1     0.0234
     110 H         -1.166201   -2.001219   -2.266181 H        1 UNL1     0.0234
     111 H         -2.296628   -1.442922   -1.083268 H        1 UNL1     0.0234
     112 H         0.676083   2.240431   1.421781 H        1 UNL1     0.0342
     113 H         0.377376   0.621726   0.694589 H        1 UNL1     0.0342
     114 H         0.746066   2.00878   -0.334059 H        1 UNL1     0.0342
     115 H         -0.281341   3.516742   -3.024934 H        1 UNL1     0.0234
     116 H         1.353927   2.988958   -3.434969 H        1 UNL1     0.0234
     117 H         -0.08968   2.352564   -4.25023 H        1 UNL1     0.0234
     118 H         -3.042684   -2.678214   -6.014604 H        1 UNL1     0.0309
     119 H         -3.37493   -4.38079   -6.460597 H        1 UNL1     0.0309
     120 H         -2.882545   -3.933682   -4.842015 H        1 UNL1     0.0309
     121 H         -1.48148   1.733199   -6.540903 H        1 UNL1     0.0524
     122 H         -2.411479   2.291934   -5.14456 H        1 UNL1     0.0524
     123 H         -0.759605   2.905757   -5.405856 H        1 UNL1     0.0524
@<TRIPOS>BOND
     1     1     2    1
     2     1    42    1
     3     2     3    2
     4     3     4    1
     5     4     5    2
     6     5     7    1
     7     6    75    1
     8     6    76    1
     9     6    77    1
    10     7     9   am
    11     9    10    1
    12    10    11    2
    13    10    43    1
    14    11    14    1
    15    11    15    1
    16    12    13   ar
    17    12    27   ar
    18    12    43    1
    19    13    14    1
    20    13    30   ar
    21    14    17    2
    22    15    16    1
    23    16    17    1
    24    16    18    1
    25    16    22    1
    26    18    19    1
    27    19    20    1
    28    20    21    1
    29    21    22    1
    30    23    24    1
    31    23    88    1
    32    23    89    1
    33    24    25    1
    34    24    26    1
    35    24    90    1
    36    25    91    1
    37    25    92    1
    38    25    93    1
    39    26    94    1
    40    26    95    1
    41    26    96    1
    42    27    28   ar
    43    28    29   ar
    44    29    30   ar
    45    29    31    1
    46    30    33    1
    47    31    32    1
    48    32    33    1
    49    32    35    1
    50    34    97    1
    51    34    98    1
    52    34    99    1
    53    35    61    1
    54    36    37    1
    55    36    60    1
    56    37    38    1
    57    38    39    1
    58    39    40    1
    59    40    41    1
    60    41    42    1
    61    45   100    1
    62    47   101    1
    63    47   102    1
    64    47   103    1
    65    48   104    1
    66    49   105    1
    67    49   106    1
    68    49   107    1
    69    50   108    1
    70    51    59    1
    71    52   109    1
    72    52   110    1
    73    52   111    1
    74    53    54    1
    75    54    55    2
    76    54    56    1
    77    56   112    1
    78    56   113    1
    79    56   114    1
    80    57   115    1
    81    57   116    1
    82    57   117    1
    83    58   118    1
    84    58   119    1
    85    58   120    1
    86    59   121    1
    87    59   122    1
    88    59   123    1
    89    60    61    2
    90     1    47    1
    91     1    62    1
    92     2    63    1
    93     3    64    1
    94     4    65    1
    95     5     6    1
    96     7     8    2
    97     9    78    1
    98    15    79    1
    99    18    80    1
   100    18    81    1
   101    19    82    1
   102    19    83    1
   103    20    23    1
   104    21    84    1
   105    21    85    1
   106    22    86    1
   107    22    87    1
   108    27    45    1
   109    28    34    1
   110    32    58    1
   111    33    46    2
   112    36    51    1
   113    36    66    1
   114    37    52    1
   115    37    67    1
   116    38    53    1
   117    38    68    1
   118    42    48    1
   119    42    72    1
   120    43    44    2
   121    60    73    1
   122    61    74    1
   123    39    69    1
   124    39    57    1
   125    40    70    1
   126    40    50    1
   127    41    71    1
   128    41    49    1
