@<TRIPOS>MOLECULE
*****
 123 128 0 0 0
SMALL
GASTEIGER

@<TRIPOS>ATOM
     1 C         5.166775   1.759142   0.45713 C.3        1 UNL1     0.0009
     2 C         6.596531   2.567242   -0.402991 C.2        1 UNL1     -0.0787
     3 C         7.874338   2.470907   -1.076768 C.2        1 UNL1     -0.0649
     4 C         8.74467   3.707057   -1.838879 C.2        1 UNL1     -0.0542
     5 C         9.75817   4.00085   -2.784173 C.2        1 UNL1     0.0115
     6 C         10.882013   3.376814   -3.656457 C.3        1 UNL1     -0.0348
     7 C         9.846893   5.483798   -3.392435 C.2        1 UNL1     0.2441
     8 O         10.671626   6.307274   -3.020645 O.2        1 UNL1     -0.2702
     9 N         9.088871   5.688439   -4.558486 N.am        1 UNL1     -0.2772
     10 C         7.807455   6.072986   -4.236896 C.2        1 UNL1     0.1049
     11 C         6.965351   5.100236   -3.938835 C.2        1 UNL1     0.0801
     12 C         6.515055   7.678346   -2.819202 C.ar        1 UNL1     0.0753
     13 C         5.760956   6.549379   -2.366017 C.ar        1 UNL1     0.0305
     14 C         5.876219   5.243384   -3.011108 C.2        1 UNL1     0.0924
     15 N         7.089433   3.771362   -4.097657 N.pl3        1 UNL1     -0.3170
     16 C         5.822712   3.170085   -3.774954 C.3        1 UNL1     0.1275
     17 N         5.190768   4.124916   -2.791761 N.2        1 UNL1     -0.2557
     18 C         4.96175   3.226564   -5.033229 C.3        1 UNL1     0.0016
     19 C         5.710724   2.542977   -6.166073 C.3        1 UNL1     0.0026
     20 N         5.985876   1.165687   -5.780856 N.3        1 UNL1     -0.3018
     21 C         6.757383   1.007699   -4.546277 C.3        1 UNL1     0.0026
     22 C         5.984485   1.697664   -3.4209 C.3        1 UNL1     0.0016
     23 C         6.424854   0.346092   -6.892704 C.3        1 UNL1     0.0012
     24 C         5.263664   0.093688   -7.867222 C.3        1 UNL1     -0.0339
     25 C         5.349283   1.015486   -9.094828 C.3        1 UNL1     -0.0615
     26 C         5.229899   -1.370629   -8.268986 C.3        1 UNL1     -0.0615
     27 C         6.311464   8.946087   -2.279294 C.ar        1 UNL1     0.1347
     28 C         5.358021   9.214619   -1.313434 C.ar        1 UNL1     0.0342
     29 C         4.66151   8.079236   -0.847663 C.ar        1 UNL1     0.1435
     30 C         4.880127   6.797216   -1.35348 C.ar        1 UNL1     0.0774
     31 O         3.62575   8.191551   0.012333 O.3        1 UNL1     -0.4436
     32 C         2.905481   6.95728   -0.124269 C.3        1 UNL1     0.3143
     33 C         3.917226   5.965633   -0.662063 C.2        1 UNL1     0.2504
     34 C         4.911447   10.580243   -0.871006 C.3        1 UNL1     -0.0327
     35 O         2.554028   6.520965   1.19458 O.2        1 UNL1     -0.4528
     36 C         -0.68787   4.582442   0.819992 C.3        1 UNL1     0.0854
     37 C         -0.996524   3.320573   -0.074403 C.3        1 UNL1     0.0236
     38 C         -1.58971   2.059049   0.718333 C.3        1 UNL1     0.1131
     39 C         -0.854708   1.53051   2.015518 C.3        1 UNL1     0.0200
     40 C         0.80698   1.388083   2.046239 C.3        1 UNL1     0.0661
     41 C         1.76033   0.620096   0.871962 C.3        1 UNL1     0.0091
     42 C         3.46362   0.985368   0.296824 C.3        1 UNL1     0.0661
     43 C         7.458338   7.471505   -3.94601 C.2        1 UNL1     0.2131
     44 O         7.851972   8.369744   -4.667782 O.2        1 UNL1     -0.2851
     45 O         7.118872   9.982331   -2.743762 O.3        1 UNL1     -0.5056
     46 O         3.936286   4.762236   -0.530432 O.2        1 UNL1     -0.2836
     47 C         5.573072   1.331564   1.893125 C.3        1 UNL1     -0.0566
     48 O         3.91532   -0.424835   0.37688 O.3        1 UNL1     -0.3909
     49 C         0.91871   0.384955   -0.362493 C.3        1 UNL1     -0.0577
     50 O         1.407397   2.607375   2.434248 O.3        1 UNL1     -0.3910
     51 O         -0.802755   4.393664   2.212326 O.3        1 UNL1     -0.3753
     52 C         0.040878   3.161107   -1.233419 C.3        1 UNL1     -0.0564
     53 O         -2.196089   1.018221   -0.176823 O.3        1 UNL1     -0.4608
     54 C         -2.394755   -0.296778   0.153691 C.2        1 UNL1     0.3042
     55 O         -1.812888   -1.278559   -0.306064 O.2        1 UNL1     -0.2512
     56 C         -3.408822   -0.496278   1.243912 C.3        1 UNL1     0.0332
     57 C         -1.568944   2.199188   3.28079 C.3        1 UNL1     -0.0567
     58 C         1.822958   7.199495   -1.201768 C.3        1 UNL1     0.0210
     59 C         -1.11343   5.572688   2.953441 C.3        1 UNL1     0.0372
     60 C         0.63846   5.213802   0.580421 C.2        1 UNL1     -0.0208
     61 C         1.556097   5.651434   1.443651 C.2        1 UNL1     0.0882
     62 H         4.68959   2.742502   0.546635 H        1 UNL1     0.0365
     63 H         6.329   3.620631   -0.29684 H        1 UNL1     0.0576
     64 H         8.332374   1.504728   -1.299947 H        1 UNL1     0.0615
     65 H         8.258103   4.621831   -1.489703 H        1 UNL1     0.0622
     66 H         -1.435865   5.327335   0.513915 H        1 UNL1     0.0645
     67 H         -1.866518   3.627835   -0.680423 H        1 UNL1     0.0362
     68 H         -2.535334   2.494456   1.075741 H        1 UNL1     0.0741
     69 H         -1.183101   0.518959   2.213839 H        1 UNL1     0.0359
     70 H         0.925589   0.728681   2.927251 H        1 UNL1     0.0600
     71 H         1.808527   -0.400638   1.299439 H        1 UNL1     0.0348
     72 H         3.363069   1.474177   1.276759 H        1 UNL1     0.0602
     73 H         0.749389   5.410422   -0.45702 H        1 UNL1     0.0628
     74 H         1.545753   5.441613   2.513747 H        1 UNL1     0.1022
     75 H         10.877944   2.263971   -3.563725 H        1 UNL1     0.0279
     76 H         10.79944   3.522634   -4.73116 H        1 UNL1     0.0279
     77 H         11.889877   3.621202   -3.290143 H        1 UNL1     0.0279
     78 H         9.025147   4.817947   -5.082186 H        1 UNL1     0.1553
     79 H         7.751554   3.344099   -4.718927 H        1 UNL1     0.1484
     80 H         4.002638   2.73401   -4.83258 H        1 UNL1     0.0317
     81 H         4.731496   4.262674   -5.303621 H        1 UNL1     0.0317
     82 H         6.6388   3.075798   -6.42041 H        1 UNL1     0.0428
     83 H         5.079805   2.596231   -7.053854 H        1 UNL1     0.0428
     84 H         6.881606   -0.034775   -4.237037 H        1 UNL1     0.0428
     85 H         7.786108   1.377553   -4.656951 H        1 UNL1     0.0428
     86 H         6.507144   1.449003   -2.515923 H        1 UNL1     0.0317
     87 H         5.006746   1.218317   -3.289189 H        1 UNL1     0.0317
     88 H         7.216536   0.888929   -7.425491 H        1 UNL1     0.0429
     89 H         6.861431   -0.598589   -6.543774 H        1 UNL1     0.0429
     90 H         4.314667   0.284991   -7.35242 H        1 UNL1     0.0308
     91 H         6.301526   0.891967   -9.619309 H        1 UNL1     0.0233
     92 H         4.529273   0.813098   -9.787814 H        1 UNL1     0.0233
     93 H         5.268749   2.076009   -8.827173 H        1 UNL1     0.0233
     94 H         4.569736   -1.510427   -9.131818 H        1 UNL1     0.0233
     95 H         6.232023   -1.703109   -8.553885 H        1 UNL1     0.0233
     96 H         4.868138   -2.00049   -7.451446 H        1 UNL1     0.0233
     97 H         4.083774   10.530946   -0.169751 H        1 UNL1     0.0280
     98 H         5.709811   11.129864   -0.35546 H        1 UNL1     0.0280
     99 H         4.587233   11.164518   -1.747706 H        1 UNL1     0.0280
     100 H         6.649362   10.744599   -3.033814 H        1 UNL1     0.2922
     101 H         4.6913   1.001068   2.441675 H        1 UNL1     0.0236
     102 H         6.123664   2.103006   2.430441 H        1 UNL1     0.0236
     103 H         6.244984   0.457082   1.890338 H        1 UNL1     0.0236
     104 H         4.252795   -0.575551   1.281516 H        1 UNL1     0.2098
     105 H         0.70043   1.28297   -0.934973 H        1 UNL1     0.0234
     106 H         1.285585   -0.402668   -1.020506 H        1 UNL1     0.0234
     107 H         0.0   -0.0   0.0 H        1 UNL1     0.0234
     108 H         1.257045   3.247485   1.712153 H        1 UNL1     0.2098
     109 H         1.069746   3.062241   -0.860099 H        1 UNL1     0.0234
     110 H         -0.187624   2.325421   -1.903613 H        1 UNL1     0.0234
     111 H         0.047445   4.038167   -1.894228 H        1 UNL1     0.0234
     112 H         -3.503994   -1.561982   1.473177 H        1 UNL1     0.0342
     113 H         -3.166446   0.07566   2.13833 H        1 UNL1     0.0342
     114 H         -4.381935   -0.142682   0.876236 H        1 UNL1     0.0342
     115 H         -2.656335   2.042501   3.266035 H        1 UNL1     0.0234
     116 H         -1.198172   1.838061   4.242124 H        1 UNL1     0.0234
     117 H         -1.512517   3.301335   3.286267 H        1 UNL1     0.0234
     118 H         0.921773   7.680836   -0.78322 H        1 UNL1     0.0309
     119 H         2.184554   7.791355   -2.048617 H        1 UNL1     0.0309
     120 H         1.436721   6.266584   -1.626744 H        1 UNL1     0.0309
     121 H         -0.27737   6.262461   2.841314 H        1 UNL1     0.0524
     122 H         -2.015711   6.080126   2.573397 H        1 UNL1     0.0524
     123 H         -1.260825   5.329642   4.001915 H        1 UNL1     0.0524
@<TRIPOS>BOND
     1     1     2    1
     2     1    42    1
     3     2     3    2
     4     3     4    1
     5     4     5    2
     6     5     7    1
     7     6    75    1
     8     6    76    1
     9     6    77    1
    10     7     9   am
    11     9    10    1
    12    10    11    2
    13    10    43    1
    14    11    14    1
    15    11    15    1
    16    12    13   ar
    17    12    27   ar
    18    12    43    1
    19    13    14    1
    20    13    30   ar
    21    14    17    2
    22    15    16    1
    23    16    17    1
    24    16    18    1
    25    16    22    1
    26    18    19    1
    27    19    20    1
    28    20    21    1
    29    21    22    1
    30    23    24    1
    31    23    88    1
    32    23    89    1
    33    24    25    1
    34    24    26    1
    35    24    90    1
    36    25    91    1
    37    25    92    1
    38    25    93    1
    39    26    94    1
    40    26    95    1
    41    26    96    1
    42    27    28   ar
    43    28    29   ar
    44    29    30   ar
    45    29    31    1
    46    30    33    1
    47    31    32    1
    48    32    33    1
    49    32    35    1
    50    34    97    1
    51    34    98    1
    52    34    99    1
    53    35    61    1
    54    36    37    1
    55    36    60    1
    56    37    38    1
    57    38    39    1
    58    39    40    1
    59    40    41    1
    60    41    42    1
    61    45   100    1
    62    47   101    1
    63    47   102    1
    64    47   103    1
    65    48   104    1
    66    49   105    1
    67    49   106    1
    68    49   107    1
    69    50   108    1
    70    51    59    1
    71    52   109    1
    72    52   110    1
    73    52   111    1
    74    53    54    1
    75    54    55    2
    76    54    56    1
    77    56   112    1
    78    56   113    1
    79    56   114    1
    80    57   115    1
    81    57   116    1
    82    57   117    1
    83    58   118    1
    84    58   119    1
    85    58   120    1
    86    59   121    1
    87    59   122    1
    88    59   123    1
    89    60    61    2
    90     1    47    1
    91     1    62    1
    92     2    63    1
    93     3    64    1
    94     4    65    1
    95     5     6    1
    96     7     8    2
    97     9    78    1
    98    15    79    1
    99    18    80    1
   100    18    81    1
   101    19    82    1
   102    19    83    1
   103    20    23    1
   104    21    84    1
   105    21    85    1
   106    22    86    1
   107    22    87    1
   108    27    45    1
   109    28    34    1
   110    32    58    1
   111    33    46    2
   112    36    51    1
   113    36    66    1
   114    37    52    1
   115    37    67    1
   116    38    53    1
   117    38    68    1
   118    42    48    1
   119    42    72    1
   120    43    44    2
   121    60    73    1
   122    61    74    1
   123    39    69    1
   124    39    57    1
   125    40    70    1
   126    40    50    1
   127    41    71    1
   128    41    49    1
