@<TRIPOS>MOLECULE
*****
 123 128 0 0 0
SMALL
GASTEIGER

@<TRIPOS>ATOM
     1 C         5.112917   1.912365   0.461184 C.3        1 UNL1     0.0009
     2 C         6.501854   2.798681   -0.388719 C.2        1 UNL1     -0.0787
     3 C         7.777442   2.770932   -1.072936 C.2        1 UNL1     -0.0649
     4 C         8.590632   4.059484   -1.810983 C.2        1 UNL1     -0.0542
     5 C         9.584113   4.416951   -2.755594 C.2        1 UNL1     0.0115
     6 C         10.726008   3.860442   -3.649852 C.3        1 UNL1     -0.0348
     7 C         9.607415   5.916229   -3.328841 C.2        1 UNL1     0.2441
     8 O         10.400472   6.763948   -2.94289 O.2        1 UNL1     -0.2702
     9 N         8.832909   6.116951   -4.484696 N.am        1 UNL1     -0.2772
     10 C         7.53926   6.440747   -4.145652 C.2        1 UNL1     0.1049
     11 C         6.739992   5.427408   -3.865408 C.2        1 UNL1     0.0801
     12 C         6.19283   7.957674   -2.681619 C.ar        1 UNL1     0.0753
     13 C         5.489058   6.788255   -2.250603 C.ar        1 UNL1     0.0305
     14 C         5.652905   5.503691   -2.927433 C.2        1 UNL1     0.0924
     15 N         6.917239   4.108882   -4.056721 N.pl3        1 UNL1     -0.3170
     16 C         5.678684   3.448541   -3.740199 C.3        1 UNL1     0.1275
     17 N         5.015537   4.3531   -2.730381 N.2        1 UNL1     -0.2557
     18 C         4.806708   3.499208   -4.991116 C.3        1 UNL1     0.0016
     19 C         5.574543   2.873934   -6.144827 C.3        1 UNL1     0.0026
     20 N         5.908797   1.50043   -5.794411 N.3        1 UNL1     -0.3018
     21 C         6.695378   1.345247   -4.569023 C.3        1 UNL1     0.0026
     22 C         5.903322   1.976083   -3.422468 C.3        1 UNL1     0.0016
     23 C         6.372638   0.72605   -6.928356 C.3        1 UNL1     0.0012
     24 C         5.215485   0.449133   -7.901017 C.3        1 UNL1     -0.0339
     25 C         5.532882   0.965345   -9.314113 C.3        1 UNL1     -0.0615
     26 C         4.884929   -1.033249   -7.908556 C.3        1 UNL1     -0.0615
     27 C         5.941511   9.202875   -2.110276 C.ar        1 UNL1     0.1347
     28 C         4.98514   9.409086   -1.132072 C.ar        1 UNL1     0.0342
     29 C         4.339266   8.235331   -0.689004 C.ar        1 UNL1     0.1435
     30 C         4.606439   6.975681   -1.226704 C.ar        1 UNL1     0.0774
     31 O         3.306259   8.28461   0.180176 O.3        1 UNL1     -0.4436
     32 C         2.636176   7.025309   0.018851 C.3        1 UNL1     0.3143
     33 C         3.683647   6.089099   -0.549065 C.2        1 UNL1     0.2504
     34 C         4.486306   10.744359   -0.654255 C.3        1 UNL1     -0.0327
     35 O         2.312812   6.543913   1.329174 O.2        1 UNL1     -0.4528
     36 C         -0.849632   4.482998   0.929592 C.3        1 UNL1     0.0854
     37 C         -1.113015   3.230945   0.007357 C.3        1 UNL1     0.0236
     38 C         -1.648031   1.927731   0.773604 C.3        1 UNL1     0.1131
     39 C         -0.882266   1.399435   2.05297 C.3        1 UNL1     0.0200
     40 C         0.784047   1.324825   2.069427 C.3        1 UNL1     0.0661
     41 C         1.75923   0.624633   0.870944 C.3        1 UNL1     0.0091
     42 C         3.441751   1.073155   0.293578 C.3        1 UNL1     0.0661
     43 C         7.135311   7.816464   -3.819181 C.2        1 UNL1     0.2131
     44 O         7.48637   8.746917   -4.521857 O.2        1 UNL1     -0.2851
     45 O         6.702259   10.282135   -2.555134 O.3        1 UNL1     -0.5056
     46 O         3.753001   4.884736   -0.446333 O.2        1 UNL1     -0.2836
     47 C         5.547167   1.468115   1.883875 C.3        1 UNL1     -0.0566
     48 O         3.951458   -0.318761   0.336986 O.3        1 UNL1     -0.3909
     49 C         0.91871   0.384242   -0.363249 C.3        1 UNL1     -0.0577
     50 O         1.336883   2.5583   2.482507 O.3        1 UNL1     -0.3910
     51 O         -0.946227   4.256862   2.317743 O.3        1 UNL1     -0.3753
     52 C         -0.07868   3.141689   -1.161888 C.3        1 UNL1     -0.0564
     53 O         -2.217945   0.884236   -0.142169 O.3        1 UNL1     -0.4608
     54 C         -2.360062   -0.445255   0.158144 C.2        1 UNL1     0.3042
     55 O         -1.649725   -1.376278   -0.219289 O.2        1 UNL1     -0.2512
     56 C         -3.493604   -0.730844   1.101667 C.3        1 UNL1     0.0332
     57 C         -1.613788   2.008122   3.338486 C.3        1 UNL1     -0.0567
     58 C         1.536577   7.248121   -1.045463 C.3        1 UNL1     0.0210
     59 C         -1.299391   5.404291   3.088811 C.3        1 UNL1     0.0372
     60 C         0.447871   5.17388   0.696505 C.2        1 UNL1     -0.0208
     61 C         1.353255   5.628419   1.563925 C.2        1 UNL1     0.0882
     62 H         4.596516   2.872869   0.577258 H        1 UNL1     0.0365
     63 H         6.19218   3.837371   -0.255701 H        1 UNL1     0.0576
     64 H         8.273003   1.829954   -1.322109 H        1 UNL1     0.0615
     65 H         8.069617   4.944969   -1.436894 H        1 UNL1     0.0622
     66 H         -1.629805   5.203491   0.646281 H        1 UNL1     0.0645
     67 H         -1.999396   3.516355   -0.585457 H        1 UNL1     0.0362
     68 H         -2.607995   2.315303   1.147476 H        1 UNL1     0.0741
     69 H         -1.167426   0.37083   2.229223 H        1 UNL1     0.0359
     70 H         0.936193   0.650264   2.933648 H        1 UNL1     0.0600
     71 H         1.852429   -0.403052   1.273603 H        1 UNL1     0.0348
     72 H         3.328611   1.53416   1.28554 H        1 UNL1     0.0602
     73 H         0.542856   5.399315   -0.336648 H        1 UNL1     0.0628
     74 H         1.359554   5.393166   2.628751 H        1 UNL1     0.1022
     75 H         10.768249   2.746497   -3.583693 H        1 UNL1     0.0279
     76 H         10.629461   4.028051   -4.720204 H        1 UNL1     0.0279
     77 H         11.72573   4.13739   -3.284399 H        1 UNL1     0.0279
     78 H         8.800985   5.257171   -5.028604 H        1 UNL1     0.1553
     79 H         7.591632   3.724002   -4.692328 H        1 UNL1     0.1484
     80 H         3.870123   2.963006   -4.796023 H        1 UNL1     0.0317
     81 H         4.532159   4.531054   -5.235181 H        1 UNL1     0.0317
     82 H         6.478067   3.450347   -6.392427 H        1 UNL1     0.0428
     83 H         4.935325   2.922106   -7.026944 H        1 UNL1     0.0428
     84 H         6.864541   0.301764   -4.28558 H        1 UNL1     0.0428
     85 H         7.70722   1.75963   -4.677552 H        1 UNL1     0.0428
     86 H         6.442513   1.727864   -2.52712 H        1 UNL1     0.0317
     87 H         4.947067   1.453933   -3.295855 H        1 UNL1     0.0317
     88 H         7.137384   1.313423   -7.45319 H        1 UNL1     0.0429
     89 H         6.850174   -0.207833   -6.604941 H        1 UNL1     0.0429
     90 H         4.312875   0.955444   -7.53886 H        1 UNL1     0.0308
     91 H         6.542602   0.680099   -9.624277 H        1 UNL1     0.0233
     92 H         4.812336   0.577456   -10.037968 H        1 UNL1     0.0233
     93 H         5.476162   2.058515   -9.381917 H        1 UNL1     0.0233
     94 H         4.365319   -1.299649   -8.835309 H        1 UNL1     0.0233
     95 H         5.805355   -1.621574   -7.857052 H        1 UNL1     0.0233
     96 H         4.245336   -1.303774   -7.063745 H        1 UNL1     0.0233
     97 H         3.650693   10.645304   0.032163 H        1 UNL1     0.0280
     98 H         5.258083   11.303656   -0.109459 H        1 UNL1     0.0280
     99 H         4.155277   11.345005   -1.517237 H        1 UNL1     0.0280
     100 H         6.202121   11.045599   -2.784495 H        1 UNL1     0.2922
     101 H         4.683824   1.088764   2.430126 H        1 UNL1     0.0236
     102 H         6.069698   2.248671   2.43585 H        1 UNL1     0.0236
     103 H         6.254315   0.622333   1.85582 H        1 UNL1     0.0236
     104 H         4.301608   -0.476759   1.235542 H        1 UNL1     0.2098
     105 H         0.700223   1.279938   -0.939274 H        1 UNL1     0.0234
     106 H         1.286641   -0.405592   -1.018014 H        1 UNL1     0.0234
     107 H         0.0   -0.0   0.0 H        1 UNL1     0.0234
     108 H         1.155005   3.208535   1.776899 H        1 UNL1     0.2098
     109 H         0.95615   3.076468   -0.797764 H        1 UNL1     0.0234
     110 H         -0.277764   2.31335   -1.850337 H        1 UNL1     0.0234
     111 H         -0.113026   4.03362   -1.801596 H        1 UNL1     0.0234
     112 H         -3.538544   -1.803003   1.315682 H        1 UNL1     0.0342
     113 H         -3.417198   -0.151833   2.02077 H        1 UNL1     0.0342
     114 H         -4.432227   -0.446674   0.606289 H        1 UNL1     0.0342
     115 H         -2.694871   1.812576   3.324018 H        1 UNL1     0.0234
     116 H         -1.225364   1.635391   4.288353 H        1 UNL1     0.0234
     117 H         -1.597178   3.11106   3.373037 H        1 UNL1     0.0234
     118 H         0.528661   7.293409   -0.597064 H        1 UNL1     0.0309
     119 H         1.699973   8.145465   -1.650672 H        1 UNL1     0.0309
     120 H         1.461149   6.414944   -1.752734 H        1 UNL1     0.0309
     121 H         -0.907282   5.25879   4.09501 H        1 UNL1     0.0524
     122 H         -0.853267   6.330276   2.689359 H        1 UNL1     0.0524
     123 H         -2.379267   5.518208   3.120182 H        1 UNL1     0.0524
@<TRIPOS>BOND
     1     1     2    1
     2     1    42    1
     3     2     3    2
     4     3     4    1
     5     4     5    2
     6     5     7    1
     7     6    75    1
     8     6    76    1
     9     6    77    1
    10     7     9   am
    11     9    10    1
    12    10    11    2
    13    10    43    1
    14    11    14    1
    15    11    15    1
    16    12    13   ar
    17    12    27   ar
    18    12    43    1
    19    13    14    1
    20    13    30   ar
    21    14    17    2
    22    15    16    1
    23    16    17    1
    24    16    18    1
    25    16    22    1
    26    18    19    1
    27    19    20    1
    28    20    21    1
    29    21    22    1
    30    23    24    1
    31    23    88    1
    32    23    89    1
    33    24    25    1
    34    24    26    1
    35    24    90    1
    36    25    91    1
    37    25    92    1
    38    25    93    1
    39    26    94    1
    40    26    95    1
    41    26    96    1
    42    27    28   ar
    43    28    29   ar
    44    29    30   ar
    45    29    31    1
    46    30    33    1
    47    31    32    1
    48    32    33    1
    49    32    35    1
    50    34    97    1
    51    34    98    1
    52    34    99    1
    53    35    61    1
    54    36    37    1
    55    36    60    1
    56    37    38    1
    57    38    39    1
    58    39    40    1
    59    40    41    1
    60    41    42    1
    61    45   100    1
    62    47   101    1
    63    47   102    1
    64    47   103    1
    65    48   104    1
    66    49   105    1
    67    49   106    1
    68    49   107    1
    69    50   108    1
    70    51    59    1
    71    52   109    1
    72    52   110    1
    73    52   111    1
    74    53    54    1
    75    54    55    2
    76    54    56    1
    77    56   112    1
    78    56   113    1
    79    56   114    1
    80    57   115    1
    81    57   116    1
    82    57   117    1
    83    58   118    1
    84    58   119    1
    85    58   120    1
    86    59   121    1
    87    59   122    1
    88    59   123    1
    89    60    61    2
    90     1    47    1
    91     1    62    1
    92     2    63    1
    93     3    64    1
    94     4    65    1
    95     5     6    1
    96     7     8    2
    97     9    78    1
    98    15    79    1
    99    18    80    1
   100    18    81    1
   101    19    82    1
   102    19    83    1
   103    20    23    1
   104    21    84    1
   105    21    85    1
   106    22    86    1
   107    22    87    1
   108    27    45    1
   109    28    34    1
   110    32    58    1
   111    33    46    2
   112    36    51    1
   113    36    66    1
   114    37    52    1
   115    37    67    1
   116    38    53    1
   117    38    68    1
   118    42    48    1
   119    42    72    1
   120    43    44    2
   121    60    73    1
   122    61    74    1
   123    39    69    1
   124    39    57    1
   125    40    70    1
   126    40    50    1
   127    41    71    1
   128    41    49    1
