@<TRIPOS>MOLECULE
*****
 123 128 0 0 0
SMALL
GASTEIGER

@<TRIPOS>ATOM
     1 C         5.167636   1.746416   0.494814 C.3        1 UNL1     0.0009
     2 C         6.605164   2.552159   -0.354496 C.2        1 UNL1     -0.0787
     3 C         7.887387   2.453618   -1.019509 C.2        1 UNL1     -0.0649
     4 C         8.765805   3.688588   -1.774217 C.2        1 UNL1     -0.0542
     5 C         9.786502   3.981073   -2.712145 C.2        1 UNL1     0.0115
     6 C         10.914933   3.3554   -3.577305 C.3        1 UNL1     -0.0348
     7 C         9.882832   5.464469   -3.318154 C.2        1 UNL1     0.2441
     8 O         10.706851   6.285648   -2.939758 O.2        1 UNL1     -0.2702
     9 N         9.13338   5.672108   -4.489204 N.am        1 UNL1     -0.2772
     10 C         7.85065   6.059249   -4.176078 C.2        1 UNL1     0.1049
     11 C         7.004276   5.088114   -3.884924 C.2        1 UNL1     0.0801
     12 C         6.552132   7.666041   -2.765615 C.ar        1 UNL1     0.0753
     13 C         5.792328   6.53832   -2.318902 C.ar        1 UNL1     0.0305
     14 C         5.909071   5.23276   -2.964609 C.2        1 UNL1     0.0924
     15 N         7.126415   3.75913   -4.044337 N.pl3        1 UNL1     -0.3170
     16 C         5.856115   3.160415   -3.731076 C.3        1 UNL1     0.1275
     17 N         5.219559   4.115633   -2.75124 N.2        1 UNL1     -0.2557
     18 C         5.004026   3.220229   -4.995223 C.3        1 UNL1     0.0016
     19 C         5.759266   2.536147   -6.123599 C.3        1 UNL1     0.0026
     20 N         6.02859   1.157814   -5.737994 N.3        1 UNL1     -0.3018
     21 C         6.791158   0.996722   -4.498273 C.3        1 UNL1     0.0026
     22 C         6.012061   1.687245   -3.377523 C.3        1 UNL1     0.0016
     23 C         6.473387   0.338414   -6.847671 C.3        1 UNL1     0.0012
     24 C         5.318404   0.089728   -7.830486 C.3        1 UNL1     -0.0339
     25 C         5.345067   1.093241   -8.995093 C.3        1 UNL1     -0.0615
     26 C         5.357467   -1.344848   -8.327724 C.3        1 UNL1     -0.0615
     27 C         6.347706   8.933663   -2.225742 C.ar        1 UNL1     0.1347
     28 C         5.388208   9.203341   -1.266218 C.ar        1 UNL1     0.0342
     29 C         4.68589   8.069058   -0.806527 C.ar        1 UNL1     0.1435
     30 C         4.905073   6.787085   -1.31222 C.ar        1 UNL1     0.0774
     31 O         3.644455   8.182822   0.046395 O.3        1 UNL1     -0.4436
     32 C         2.922327   6.950356   -0.096545 C.3        1 UNL1     0.3143
     33 C         3.935503   5.956969   -0.628402 C.2        1 UNL1     0.2504
     34 C         4.941705   10.569508   -0.825398 C.3        1 UNL1     -0.0327
     35 O         2.560744   6.513426   1.219359 O.2        1 UNL1     -0.4528
     36 C         -0.682907   4.582756   0.820197 C.3        1 UNL1     0.0854
     37 C         -0.988242   3.322566   -0.077696 C.3        1 UNL1     0.0236
     38 C         -1.589793   2.061552   0.70953 C.3        1 UNL1     0.1131
     39 C         -0.865011   1.529927   2.011196 C.3        1 UNL1     0.0200
     40 C         0.796095   1.383652   2.053273 C.3        1 UNL1     0.0661
     41 C         1.755801   0.614746   0.884788 C.3        1 UNL1     0.0091
     42 C         3.463867   0.976728   0.321865 C.3        1 UNL1     0.0661
     43 C         7.502726   7.458251   -3.886086 C.2        1 UNL1     0.2131
     44 O         7.903407   8.356363   -4.60413 O.2        1 UNL1     -0.2851
     45 O         7.160682   9.968551   -2.68347 O.3        1 UNL1     -0.5056
     46 O         3.950897   4.753391   -0.49796 O.2        1 UNL1     -0.2836
     47 C         5.562991   1.316357   1.93312 C.3        1 UNL1     -0.0566
     48 O         3.911773   -0.434595   0.403504 O.3        1 UNL1     -0.3909
     49 C         0.92222   0.38287   -0.355724 C.3        1 UNL1     -0.0577
     50 O         1.396596   2.601143   2.446767 O.3        1 UNL1     -0.3910
     51 O         -0.80787   4.392741   2.211495 O.3        1 UNL1     -0.3753
     52 C         0.0568   3.161969   -1.229671 C.3        1 UNL1     -0.0564
     53 O         -2.192334   1.023085   -0.190945 O.3        1 UNL1     -0.4608
     54 C         -2.415399   -0.286904   0.14387 C.2        1 UNL1     0.3042
     55 O         -1.843405   -1.280013   -0.303786 O.2        1 UNL1     -0.2512
     56 C         -3.445467   -0.464871   1.222759 C.3        1 UNL1     0.0332
     57 C         -1.586465   2.198878   3.272221 C.3        1 UNL1     -0.0567
     58 C         1.847855   7.196218   -1.181252 C.3        1 UNL1     0.0210
     59 C         -1.151899   5.565321   2.948085 C.3        1 UNL1     0.0372
     60 C         0.646493   5.211328   0.590512 C.2        1 UNL1     -0.0208
     61 C         1.559124   5.64592   1.460558 C.2        1 UNL1     0.0882
     62 H         4.692094   2.730771   0.582088 H        1 UNL1     0.0365
     63 H         6.339316   3.606044   -0.249048 H        1 UNL1     0.0576
     64 H         8.344746   1.486631   -1.240567 H        1 UNL1     0.0615
     65 H         8.278925   4.6041   -1.427419 H        1 UNL1     0.0622
     66 H         -1.427057   5.329695   0.509762 H        1 UNL1     0.0645
     67 H         -1.853309   3.632478   -0.689392 H        1 UNL1     0.0362
     68 H         -2.536872   2.498743   1.060854 H        1 UNL1     0.0741
     69 H         -1.197084   0.518919   2.20613 H        1 UNL1     0.0359
     70 H         0.907086   0.723029   2.934362 H        1 UNL1     0.0600
     71 H         1.798698   -0.406557   1.311471 H        1 UNL1     0.0348
     72 H         3.357645   1.464708   1.301614 H        1 UNL1     0.0602
     73 H         0.765058   5.408812   -0.445919 H        1 UNL1     0.0628
     74 H         1.540883   5.434969   2.530326 H        1 UNL1     0.1022
     75 H         10.958846   2.25006   -3.424568 H        1 UNL1     0.0279
     76 H         10.801943   3.438536   -4.655911 H        1 UNL1     0.0279
     77 H         11.919956   3.659576   -3.250035 H        1 UNL1     0.0279
     78 H         9.071295   4.802331   -5.014285 H        1 UNL1     0.1553
     79 H         7.791846   3.331019   -4.661472 H        1 UNL1     0.1484
     80 H         4.042421   2.729662   -4.801763 H        1 UNL1     0.0317
     81 H         4.778022   4.257155   -5.266069 H        1 UNL1     0.0317
     82 H         6.6903   3.06711   -6.370917 H        1 UNL1     0.0428
     83 H         5.134639   2.591807   -7.015672 H        1 UNL1     0.0428
     84 H         6.91085   -0.046367   -4.189322 H        1 UNL1     0.0428
     85 H         7.82147   1.364334   -4.601412 H        1 UNL1     0.0428
     86 H         6.527865   1.436409   -2.46922 H        1 UNL1     0.0317
     87 H         5.032338   1.210002   -3.253114 H        1 UNL1     0.0317
     88 H         7.269982   0.880007   -7.374365 H        1 UNL1     0.0429
     89 H         6.905372   -0.607643   -6.496759 H        1 UNL1     0.0429
     90 H         4.365291   0.196708   -7.299126 H        1 UNL1     0.0308
     91 H         6.294271   1.048068   -9.537378 H        1 UNL1     0.0233
     92 H         4.525093   0.899687   -9.690642 H        1 UNL1     0.0233
     93 H         5.220976   2.129076   -8.656741 H        1 UNL1     0.0233
     94 H         4.6616   -1.473896   -9.163757 H        1 UNL1     0.0233
     95 H         6.361933   -1.589464   -8.684339 H        1 UNL1     0.0233
     96 H         5.082346   -2.04878   -7.537309 H        1 UNL1     0.0233
     97 H         4.147929   10.519875   -0.086015 H        1 UNL1     0.0280
     98 H         5.754441   11.139071   -0.356022 H        1 UNL1     0.0280
     99 H         4.56876   11.134439   -1.695376 H        1 UNL1     0.0280
     100 H         6.694154   10.71919   -3.006759 H        1 UNL1     0.2922
     101 H         4.699707   0.882957   2.43766 H        1 UNL1     0.0236
     102 H         6.013798   2.12135   2.512553 H        1 UNL1     0.0236
     103 H         6.318892   0.513359   1.932228 H        1 UNL1     0.0236
     104 H         4.330763   -0.561   1.277255 H        1 UNL1     0.2098
     105 H         0.710285   1.281947   -0.928922 H        1 UNL1     0.0234
     106 H         1.291634   -0.405137   -1.011854 H        1 UNL1     0.0234
     107 H         0.0   -0.0   0.0 H        1 UNL1     0.0234
     108 H         1.198721   3.259666   1.753254 H        1 UNL1     0.2098
     109 H         1.081373   3.047947   -0.848933 H        1 UNL1     0.0234
     110 H         -0.175621   2.335151   -1.909447 H        1 UNL1     0.0234
     111 H         0.07874   4.044947   -1.882215 H        1 UNL1     0.0234
     112 H         -3.571403   -1.528828   1.445206 H        1 UNL1     0.0342
     113 H         -3.197002   0.095696   2.122688 H        1 UNL1     0.0342
     114 H         -4.404996   -0.083436   0.847294 H        1 UNL1     0.0342
     115 H         -2.650772   1.930898   3.32347 H        1 UNL1     0.0234
     116 H         -1.135572   1.937883   4.231714 H        1 UNL1     0.0234
     117 H         -1.646424   3.299215   3.212177 H        1 UNL1     0.0234
     118 H         0.946761   7.683405   -0.769322 H        1 UNL1     0.0309
     119 H         2.217951   7.784266   -2.027084 H        1 UNL1     0.0309
     120 H         1.459118   6.26454   -1.606653 H        1 UNL1     0.0309
     121 H         -0.347279   6.287566   2.812783 H        1 UNL1     0.0524
     122 H         -2.081653   6.03167   2.58187 H        1 UNL1     0.0524
     123 H         -1.268275   5.326798   4.001487 H        1 UNL1     0.0524
@<TRIPOS>BOND
     1     1     2    1
     2     1    42    1
     3     2     3    2
     4     3     4    1
     5     4     5    2
     6     5     7    1
     7     6    75    1
     8     6    76    1
     9     6    77    1
    10     7     9   am
    11     9    10    1
    12    10    11    2
    13    10    43    1
    14    11    14    1
    15    11    15    1
    16    12    13   ar
    17    12    27   ar
    18    12    43    1
    19    13    14    1
    20    13    30   ar
    21    14    17    2
    22    15    16    1
    23    16    17    1
    24    16    18    1
    25    16    22    1
    26    18    19    1
    27    19    20    1
    28    20    21    1
    29    21    22    1
    30    23    24    1
    31    23    88    1
    32    23    89    1
    33    24    25    1
    34    24    26    1
    35    24    90    1
    36    25    91    1
    37    25    92    1
    38    25    93    1
    39    26    94    1
    40    26    95    1
    41    26    96    1
    42    27    28   ar
    43    28    29   ar
    44    29    30   ar
    45    29    31    1
    46    30    33    1
    47    31    32    1
    48    32    33    1
    49    32    35    1
    50    34    97    1
    51    34    98    1
    52    34    99    1
    53    35    61    1
    54    36    37    1
    55    36    60    1
    56    37    38    1
    57    38    39    1
    58    39    40    1
    59    40    41    1
    60    41    42    1
    61    45   100    1
    62    47   101    1
    63    47   102    1
    64    47   103    1
    65    48   104    1
    66    49   105    1
    67    49   106    1
    68    49   107    1
    69    50   108    1
    70    51    59    1
    71    52   109    1
    72    52   110    1
    73    52   111    1
    74    53    54    1
    75    54    55    2
    76    54    56    1
    77    56   112    1
    78    56   113    1
    79    56   114    1
    80    57   115    1
    81    57   116    1
    82    57   117    1
    83    58   118    1
    84    58   119    1
    85    58   120    1
    86    59   121    1
    87    59   122    1
    88    59   123    1
    89    60    61    2
    90     1    47    1
    91     1    62    1
    92     2    63    1
    93     3    64    1
    94     4    65    1
    95     5     6    1
    96     7     8    2
    97     9    78    1
    98    15    79    1
    99    18    80    1
   100    18    81    1
   101    19    82    1
   102    19    83    1
   103    20    23    1
   104    21    84    1
   105    21    85    1
   106    22    86    1
   107    22    87    1
   108    27    45    1
   109    28    34    1
   110    32    58    1
   111    33    46    2
   112    36    51    1
   113    36    66    1
   114    37    52    1
   115    37    67    1
   116    38    53    1
   117    38    68    1
   118    42    48    1
   119    42    72    1
   120    43    44    2
   121    60    73    1
   122    61    74    1
   123    39    69    1
   124    39    57    1
   125    40    70    1
   126    40    50    1
   127    41    71    1
   128    41    49    1
