@<TRIPOS>MOLECULE
*****
 123 128 0 0 0
SMALL
GASTEIGER

@<TRIPOS>ATOM
     1 C         5.167191   1.748085   0.493571 C.3        1 UNL1     0.0009
     2 C         6.604305   2.554154   -0.35613 C.2        1 UNL1     -0.0787
     3 C         7.88643   2.455916   -1.021377 C.2        1 UNL1     -0.0649
     4 C         8.76432   3.691053   -1.776428 C.2        1 UNL1     -0.0542
     5 C         9.784745   3.983723   -2.714594 C.2        1 UNL1     0.0115
     6 C         10.913202   3.358278   -3.579884 C.3        1 UNL1     -0.0348
     7 C         9.880499   5.467064   -3.320828 C.2        1 UNL1     0.2441
     8 O         10.704336   6.288551   -2.942706 O.2        1 UNL1     -0.2702
     9 N         9.130755   5.674307   -4.491762 N.am        1 UNL1     -0.2772
     10 C         7.847966   6.061095   -4.178443 C.2        1 UNL1     0.1049
     11 C         7.001949   5.089739   -3.886989 C.2        1 UNL1     0.0801
     12 C         6.549224   7.667682   -2.767953 C.ar        1 UNL1     0.0753
     13 C         5.789856   6.539788   -2.320936 C.ar        1 UNL1     0.0305
     14 C         5.906878   5.234175   -2.966483 C.2        1 UNL1     0.0924
     15 N         7.124469   3.760771   -4.046241 N.pl3        1 UNL1     -0.3170
     16 C         5.854415   3.161706   -3.73265 C.3        1 UNL1     0.1275
     17 N         5.217752   4.116864   -2.752825 N.2        1 UNL1     -0.2557
     18 C         5.002063   3.221079   -4.996641 C.3        1 UNL1     0.0016
     19 C         5.757297   2.537073   -6.125067 C.3        1 UNL1     0.0026
     20 N         6.027122   1.158878   -5.739321 N.3        1 UNL1     -0.3018
     21 C         6.78998   0.998195   -4.499725 C.3        1 UNL1     0.0026
     22 C         6.010885   1.688634   -3.378922 C.3        1 UNL1     0.0016
     23 C         6.471958   0.33946   -6.848969 C.3        1 UNL1     0.0012
     24 C         5.316862   0.09028   -7.831527 C.3        1 UNL1     -0.0339
     25 C         5.342989   1.093638   -8.996279 C.3        1 UNL1     -0.0615
     26 C         5.356273   -1.344354   -8.328572 C.3        1 UNL1     -0.0615
     27 C         6.34451   8.935316   -2.228218 C.ar        1 UNL1     0.1347
     28 C         5.385114   9.204831   -1.268546 C.ar        1 UNL1     0.0342
     29 C         4.683236   8.070395   -0.808561 C.ar        1 UNL1     0.1435
     30 C         4.902717   6.78842   -1.314117 C.ar        1 UNL1     0.0774
     31 O         3.64193   8.183956   0.044547 O.3        1 UNL1     -0.4436
     32 C         2.920157   6.951246   -0.098081 C.3        1 UNL1     0.3143
     33 C         3.933537   5.958099   -0.629995 C.2        1 UNL1     0.2504
     34 C         4.938273   10.570922   -0.827831 C.3        1 UNL1     -0.0327
     35 O         2.558963   6.514389   1.217953 O.2        1 UNL1     -0.4528
     36 C         -0.684167   4.58266   0.819689 C.3        1 UNL1     0.0854
     37 C         -0.989285   3.322249   -0.077969 C.3        1 UNL1     0.0236
     38 C         -1.590294   2.061159   0.709549 C.3        1 UNL1     0.1131
     39 C         -0.865095   1.529941   2.01115 C.3        1 UNL1     0.0200
     40 C         0.796063   1.384186   2.052926 C.3        1 UNL1     0.0661
     41 C         1.755781   0.615413   0.884363 C.3        1 UNL1     0.0091
     42 C         3.463626   0.977845   0.321059 C.3        1 UNL1     0.0661
     43 C         7.499665   7.46003   -3.888579 C.2        1 UNL1     0.2131
     44 O         7.89993   8.358165   -4.606826 O.2        1 UNL1     -0.2851
     45 O         7.157077   9.970391   -2.686248 O.3        1 UNL1     -0.5056
     46 O         3.949328   4.754544   -0.499389 O.2        1 UNL1     -0.2836
     47 C         5.562957   1.318349   1.931861 C.3        1 UNL1     -0.0566
     48 O         3.911986   -0.433327   0.402809 O.3        1 UNL1     -0.3909
     49 C         0.922033   0.383106   -0.355956 C.3        1 UNL1     -0.0577
     50 O         1.396264   2.601917   2.446134 O.3        1 UNL1     -0.3910
     51 O         -0.808803   4.3928   2.211037 O.3        1 UNL1     -0.3753
     52 C         0.055584   3.161814   -1.230124 C.3        1 UNL1     -0.0564
     53 O         -2.192687   1.022379   -0.190665 O.3        1 UNL1     -0.4608
     54 C         -2.427387   -0.284392   0.148739 C.2        1 UNL1     0.3042
     55 O         -1.858248   -1.28353   -0.289031 O.2        1 UNL1     -0.2512
     56 C         -3.467828   -0.45006   1.219603 C.3        1 UNL1     0.0332
     57 C         -1.586514   2.198844   3.27222 C.3        1 UNL1     -0.0567
     58 C         1.845398   7.196625   -1.182615 C.3        1 UNL1     0.0210
     59 C         -1.153051   5.565377   2.94753 C.3        1 UNL1     0.0372
     60 C         0.644994   5.21161   0.589659 C.2        1 UNL1     -0.0208
     61 C         1.557658   5.646607   1.459467 C.2        1 UNL1     0.0882
     62 H         4.691361   2.732305   0.580799 H        1 UNL1     0.0365
     63 H         6.338151   3.607972   -0.250777 H        1 UNL1     0.0576
     64 H         8.344045   1.48904   -1.242389 H        1 UNL1     0.0615
     65 H         8.277223   4.606463   -1.429664 H        1 UNL1     0.0622
     66 H         -1.428608   5.329324   0.509292 H        1 UNL1     0.0645
     67 H         -1.854567   3.631807   -0.689541 H        1 UNL1     0.0362
     68 H         -2.53744   2.498106   1.060995 H        1 UNL1     0.0741
     69 H         -1.196818   0.518857   2.206289 H        1 UNL1     0.0359
     70 H         0.907429   0.72372   2.934086 H        1 UNL1     0.0600
     71 H         1.799077   -0.405816   1.31118 H        1 UNL1     0.0348
     72 H         3.357443   1.465929   1.30076 H        1 UNL1     0.0602
     73 H         0.763298   5.408987   -0.446823 H        1 UNL1     0.0628
     74 H         1.53969   5.435799   2.529268 H        1 UNL1     0.1022
     75 H         10.957487   2.252973   -3.427001 H        1 UNL1     0.0279
     76 H         10.799978   3.441229   -4.65848 H        1 UNL1     0.0279
     77 H         11.918194   3.662811   -3.252851 H        1 UNL1     0.0279
     78 H         9.068838   4.804437   -5.01671 H        1 UNL1     0.1553
     79 H         7.789913   3.332779   -4.663444 H        1 UNL1     0.1484
     80 H         4.040648   2.730241   -4.802926 H        1 UNL1     0.0317
     81 H         4.775686   4.257898   -5.267588 H        1 UNL1     0.0317
     82 H         6.688119   3.06829   -6.372639 H        1 UNL1     0.0428
     83 H         5.13248   2.592415   -7.017027 H        1 UNL1     0.0428
     84 H         6.910054   -0.044813   -4.190651 H        1 UNL1     0.0428
     85 H         7.820157   1.366111   -4.603115 H        1 UNL1     0.0428
     86 H         6.526942   1.438084   -2.470683 H        1 UNL1     0.0317
     87 H         5.031334   1.211105   -3.254256 H        1 UNL1     0.0317
     88 H         7.268284   0.881226   -7.375894 H        1 UNL1     0.0429
     89 H         6.904304   -0.606414   -6.498009 H        1 UNL1     0.0429
     90 H         4.363818   0.197038   -7.299997 H        1 UNL1     0.0308
     91 H         6.293288   1.050861   -9.536838 H        1 UNL1     0.0233
     92 H         4.524788   0.897793   -9.693272 H        1 UNL1     0.0233
     93 H         5.215559   2.129207   -8.658353 H        1 UNL1     0.0233
     94 H         4.660285   -1.473734   -9.164452 H        1 UNL1     0.0233
     95 H         6.360746   -1.588709   -8.685346 H        1 UNL1     0.0233
     96 H         5.081523   -2.048261   -7.538005 H        1 UNL1     0.0233
     97 H         4.144656   10.521146   -0.088288 H        1 UNL1     0.0280
     98 H         5.750923   11.140802   -0.358692 H        1 UNL1     0.0280
     99 H         4.564985   11.135615   -1.697816 H        1 UNL1     0.0280
     100 H         6.69026   10.721103   -3.00895 H        1 UNL1     0.2922
     101 H         4.699904   0.884752   2.436628 H        1 UNL1     0.0236
     102 H         6.013626   2.123563   2.511094 H        1 UNL1     0.0236
     103 H         6.319107   0.515585   1.930935 H        1 UNL1     0.0236
     104 H         4.331183   -0.559481   1.276496 H        1 UNL1     0.2098
     105 H         0.709708   1.282037   -0.929238 H        1 UNL1     0.0234
     106 H         1.291564   -0.404878   -1.012047 H        1 UNL1     0.0234
     107 H         0.0   -0.0   0.0 H        1 UNL1     0.0234
     108 H         1.198649   3.260098   1.752221 H        1 UNL1     0.2098
     109 H         1.080265   3.048163   -0.849568 H        1 UNL1     0.0234
     110 H         -0.176713   2.334829   -1.909739 H        1 UNL1     0.0234
     111 H         0.077124   4.044708   -1.882796 H        1 UNL1     0.0234
     112 H         -3.600548   -1.511829   1.448464 H        1 UNL1     0.0342
     113 H         -3.224869   0.115809   2.117716 H        1 UNL1     0.0342
     114 H         -4.422239   -0.067047   0.832866 H        1 UNL1     0.0342
     115 H         -2.656182   1.950695   3.309902 H        1 UNL1     0.0234
     116 H         -1.150442   1.918909   4.233223 H        1 UNL1     0.0234
     117 H         -1.624958   3.300711   3.223716 H        1 UNL1     0.0234
     118 H         0.944234   7.68359   -0.770579 H        1 UNL1     0.0309
     119 H         2.215149   7.784669   -2.028601 H        1 UNL1     0.0309
     120 H         1.456868   6.264767   -1.607811 H        1 UNL1     0.0309
     121 H         -0.348682   6.287851   2.811971 H        1 UNL1     0.0524
     122 H         -2.083021   6.031386   2.581429 H        1 UNL1     0.0524
     123 H         -1.26915   5.326964   4.000988 H        1 UNL1     0.0524
@<TRIPOS>BOND
     1     1     2    1
     2     1    42    1
     3     2     3    2
     4     3     4    1
     5     4     5    2
     6     5     7    1
     7     6    75    1
     8     6    76    1
     9     6    77    1
    10     7     9   am
    11     9    10    1
    12    10    11    2
    13    10    43    1
    14    11    14    1
    15    11    15    1
    16    12    13   ar
    17    12    27   ar
    18    12    43    1
    19    13    14    1
    20    13    30   ar
    21    14    17    2
    22    15    16    1
    23    16    17    1
    24    16    18    1
    25    16    22    1
    26    18    19    1
    27    19    20    1
    28    20    21    1
    29    21    22    1
    30    23    24    1
    31    23    88    1
    32    23    89    1
    33    24    25    1
    34    24    26    1
    35    24    90    1
    36    25    91    1
    37    25    92    1
    38    25    93    1
    39    26    94    1
    40    26    95    1
    41    26    96    1
    42    27    28   ar
    43    28    29   ar
    44    29    30   ar
    45    29    31    1
    46    30    33    1
    47    31    32    1
    48    32    33    1
    49    32    35    1
    50    34    97    1
    51    34    98    1
    52    34    99    1
    53    35    61    1
    54    36    37    1
    55    36    60    1
    56    37    38    1
    57    38    39    1
    58    39    40    1
    59    40    41    1
    60    41    42    1
    61    45   100    1
    62    47   101    1
    63    47   102    1
    64    47   103    1
    65    48   104    1
    66    49   105    1
    67    49   106    1
    68    49   107    1
    69    50   108    1
    70    51    59    1
    71    52   109    1
    72    52   110    1
    73    52   111    1
    74    53    54    1
    75    54    55    2
    76    54    56    1
    77    56   112    1
    78    56   113    1
    79    56   114    1
    80    57   115    1
    81    57   116    1
    82    57   117    1
    83    58   118    1
    84    58   119    1
    85    58   120    1
    86    59   121    1
    87    59   122    1
    88    59   123    1
    89    60    61    2
    90     1    47    1
    91     1    62    1
    92     2    63    1
    93     3    64    1
    94     4    65    1
    95     5     6    1
    96     7     8    2
    97     9    78    1
    98    15    79    1
    99    18    80    1
   100    18    81    1
   101    19    82    1
   102    19    83    1
   103    20    23    1
   104    21    84    1
   105    21    85    1
   106    22    86    1
   107    22    87    1
   108    27    45    1
   109    28    34    1
   110    32    58    1
   111    33    46    2
   112    36    51    1
   113    36    66    1
   114    37    52    1
   115    37    67    1
   116    38    53    1
   117    38    68    1
   118    42    48    1
   119    42    72    1
   120    43    44    2
   121    60    73    1
   122    61    74    1
   123    39    69    1
   124    39    57    1
   125    40    70    1
   126    40    50    1
   127    41    71    1
   128    41    49    1
