@<TRIPOS>MOLECULE
*****
 123 128 0 0 0
SMALL
GASTEIGER

@<TRIPOS>ATOM
     1 C         4.374065   -1.261869   3.047457 C.3        1 UNL1     0.0009
     2 C         4.980066   -1.778216   4.721729 C.2        1 UNL1     -0.0787
     3 C         5.59762   -1.451551   5.989784 C.2        1 UNL1     -0.0649
     4 C         5.805911   -2.457486   7.335542 C.2        1 UNL1     -0.0542
     5 C         6.040105   -2.494493   8.732275 C.2        1 UNL1     0.0115
     6 C         6.427486   -1.631793   9.964756 C.3        1 UNL1     -0.0348
     7 C         5.710999   -3.842348   9.539718 C.2        1 UNL1     0.2441
     8 O         6.574267   -4.633389   9.894046 O.2        1 UNL1     -0.2702
     9 N         4.399674   -3.924173   10.039602 N.am        1 UNL1     -0.2772
     10 C         3.560805   -4.476408   9.09904 C.2        1 UNL1     0.1049
     11 C         3.089924   -3.650308   8.182497 C.2        1 UNL1     0.0801
     12 C         3.344176   -6.408115   7.524583 C.ar        1 UNL1     0.0753
     13 C         3.040466   -5.445697   6.509634 C.ar        1 UNL1     0.0305
     14 C         2.774692   -4.046632   6.836788 C.2        1 UNL1     0.0924
     15 N         3.124143   -2.307685   8.130339 N.pl3        1 UNL1     -0.3170
     16 C         2.320401   -1.890762   7.012113 C.3        1 UNL1     0.1275
     17 N         2.384946   -3.049642   6.047461 N.2        1 UNL1     -0.2557
     18 C         0.87482   -1.821784   7.495061 C.3        1 UNL1     0.0016
     19 C         0.807494   -0.89355   8.697325 C.3        1 UNL1     0.0026
     20 N         1.290643   0.421764   8.300406 N.3        1 UNL1     -0.3018
     21 C         2.652872   0.447828   7.763728 C.3        1 UNL1     0.0026
     22 C         2.696453   -0.48772   6.554287 C.3        1 UNL1     0.0016
     23 C         0.991502   1.450599   9.276447 C.3        1 UNL1     0.0012
     24 C         -0.516096   1.747758   9.300971 C.3        1 UNL1     -0.0339
     25 C         -1.338793   0.516361   8.887586 C.3        1 UNL1     -0.0615
     26 C         -0.924082   2.258022   10.672086 C.3        1 UNL1     -0.0615
     27 C         3.477037   -7.760776   7.219993 C.ar        1 UNL1     0.1347
     28 C         3.290213   -8.273553   5.948691 C.ar        1 UNL1     0.0342
     29 C         3.040213   -7.30142   4.956914 C.ar        1 UNL1     0.1435
     30 C         2.940183   -5.9389   5.241088 C.ar        1 UNL1     0.0774
     31 O         2.727586   -7.651284   3.690081 O.3        1 UNL1     -0.4436
     32 C         2.098649   -6.48553   3.136611 C.3        1 UNL1     0.3143
     33 C         2.606124   -5.327408   3.971738 C.2        1 UNL1     0.2504
     34 C         3.16814   -9.729453   5.594359 C.3        1 UNL1     -0.0327
     35 O         2.621121   -6.306856   1.814359 O.2        1 UNL1     -0.4528
     36 C         -0.148588   -4.650522   -0.183981 C.3        1 UNL1     0.0854
     37 C         -0.903861   -3.294232   0.09452 C.3        1 UNL1     0.0236
     38 C         -0.871809   -2.242037   -1.115274 C.3        1 UNL1     0.1131
     39 C         0.507454   -1.865884   -1.792335 C.3        1 UNL1     0.0200
     40 C         1.856312   -1.572973   -0.855734 C.3        1 UNL1     0.0661
     41 C         1.92924   -0.535629   0.484494 C.3        1 UNL1     0.0091
     42 C         2.935282   -0.637892   2.015123 C.3        1 UNL1     0.0661
     43 C         3.424676   -5.930483   8.927311 C.2        1 UNL1     0.2131
     44 O         3.284302   -6.656608   9.894666 O.2        1 UNL1     -0.2851
     45 O         3.818673   -8.62523   8.257992 O.3        1 UNL1     -0.5056
     46 O         2.728241   -4.165612   3.653663 O.2        1 UNL1     -0.2836
     47 C         5.571958   -1.038886   2.085524 C.3        1 UNL1     -0.0566
     48 O         3.376677   0.776583   1.955546 O.3        1 UNL1     -0.3909
     49 C         0.520152   -0.182385   0.905427 C.3        1 UNL1     -0.0577
     50 O         2.541061   -2.776652   -0.572895 O.3        1 UNL1     -0.3910
     51 O         0.601305   -4.704438   -1.376535 O.3        1 UNL1     -0.3753
     52 C         -0.768654   -2.848878   1.587278 C.3        1 UNL1     -0.0564
     53 O         -1.870412   -1.13098   -0.971498 O.3        1 UNL1     -0.4608
     54 C         -1.663881   0.175181   -1.330967 C.2        1 UNL1     0.3042
     55 O         -1.904565   0.697473   -2.418681 O.2        1 UNL1     -0.2512
     56 C         -1.134496   1.029675   -0.214587 C.3        1 UNL1     0.0332
     57 C         0.682504   -2.797891   -3.080316 C.3        1 UNL1     -0.0567
     58 C         0.580548   -6.649645   3.381493 C.3        1 UNL1     0.0210
     59 C         0.771894   -6.013203   -1.918659 C.3        1 UNL1     0.0372
     60 C         0.752059   -5.104945   0.910321 C.2        1 UNL1     -0.0208
     61 C         1.993951   -5.588894   0.862952 C.2        1 UNL1     0.0882
     62 H         4.024123   -2.287473   2.87897 H        1 UNL1     0.0365
     63 H         4.805958   -2.855362   4.677987 H        1 UNL1     0.0576
     64 H         5.851487   -0.422715   6.254653 H        1 UNL1     0.0615
     65 H         5.606212   -3.459227   6.945519 H        1 UNL1     0.0622
     66 H         -0.947203   -5.402879   -0.248938 H        1 UNL1     0.0645
     67 H         -1.970196   -3.579314   0.109253 H        1 UNL1     0.0362
     68 H         -1.422133   -2.818133   -1.874734 H        1 UNL1     0.0741
     69 H         0.387762   -0.936451   -2.332924 H        1 UNL1     0.0359
     70 H         2.496042   -1.058728   -1.598269 H        1 UNL1     0.0600
     71 H         2.248327   0.401072   -0.013234 H        1 UNL1     0.0348
     72 H         3.433003   -1.288107   1.281086 H        1 UNL1     0.0602
     73 H         0.212245   -5.117307   1.824485 H        1 UNL1     0.0628
     74 H         2.634038   -5.559355   -0.019461 H        1 UNL1     0.1022
     75 H         7.31099   -0.98978   9.731791 H        1 UNL1     0.0279
     76 H         5.690899   -0.904451   10.298644 H        1 UNL1     0.0279
     77 H         6.811455   -2.233691   10.801409 H        1 UNL1     0.0279
     78 H         4.053914   -2.989649   10.24743 H        1 UNL1     0.1553
     79 H         3.289185   -1.723287   8.929196 H        1 UNL1     0.1484
     80 H         0.240844   -1.462326   6.675529 H        1 UNL1     0.0317
     81 H         0.504443   -2.816664   7.764662 H        1 UNL1     0.0317
     82 H         1.383469   -1.286692   9.547974 H        1 UNL1     0.0428
     83 H         -0.23149   -0.860275   9.02665 H        1 UNL1     0.0428
     84 H         2.962075   1.432498   7.399544 H        1 UNL1     0.0428
     85 H         3.399379   0.200712   8.531176 H        1 UNL1     0.0428
     86 H         3.66382   -0.342252   6.11041 H        1 UNL1     0.0317
     87 H         2.00584   -0.131697   5.780079 H        1 UNL1     0.0317
     88 H         1.290867   1.08031   10.265669 H        1 UNL1     0.0429
     89 H         1.571779   2.362462   9.085241 H        1 UNL1     0.0429
     90 H         -0.732834   2.563501   8.601113 H        1 UNL1     0.0308
     91 H         -1.149799   0.24347   7.845034 H        1 UNL1     0.0233
     92 H         -1.106394   -0.336692   9.52938 H        1 UNL1     0.0233
     93 H         -2.418453   0.684641   8.981673 H        1 UNL1     0.0233
     94 H         -1.84266   2.849959   10.59685 H        1 UNL1     0.0233
     95 H         -1.119821   1.415502   11.341271 H        1 UNL1     0.0233
     96 H         -0.144029   2.885078   11.112866 H        1 UNL1     0.0233
     97 H         2.905927   -9.874166   4.550552 H        1 UNL1     0.0280
     98 H         4.110142   -10.272586   5.745674 H        1 UNL1     0.0280
     99 H         2.385753   -10.195998   6.215086 H        1 UNL1     0.0280
     100 H         3.276976   -9.391993   8.323272 H        1 UNL1     0.2922
     101 H         5.940173   -0.018241   2.187301 H        1 UNL1     0.0236
     102 H         5.342884   -1.289713   1.050346 H        1 UNL1     0.0236
     103 H         6.434928   -1.674852   2.344411 H        1 UNL1     0.0236
     104 H         3.538911   0.995661   1.017114 H        1 UNL1     0.2098
     105 H         -0.002242   -0.974867   1.435415 H        1 UNL1     0.0234
     106 H         0.429331   0.758535   1.447965 H        1 UNL1     0.0234
     107 H         0.0   0.0   0.0 H        1 UNL1     0.0234
     108 H         3.171711   -2.588954   0.148783 H        1 UNL1     0.2098
     109 H         -1.092923   -3.632529   2.286171 H        1 UNL1     0.0234
     110 H         0.243166   -2.520702   1.848553 H        1 UNL1     0.0234
     111 H         -1.396959   -1.975583   1.807585 H        1 UNL1     0.0234
     112 H         -1.135338   0.462167   0.720977 H        1 UNL1     0.0342
     113 H         -0.142017   1.420733   -0.433449 H        1 UNL1     0.0342
     114 H         -1.809878   1.887137   -0.088955 H        1 UNL1     0.0342
     115 H         1.222869   -2.283019   -3.886604 H        1 UNL1     0.0234
     116 H         1.204766   -3.735922   -2.88185 H        1 UNL1     0.0234
     117 H         -0.270538   -3.0383   -3.58217 H        1 UNL1     0.0234
     118 H         0.037561   -6.913151   2.456974 H        1 UNL1     0.0309
     119 H         0.34758   -7.387042   4.156202 H        1 UNL1     0.0309
     120 H         0.102453   -5.716125   3.697832 H        1 UNL1     0.0309
     121 H         0.074263   -6.67557   -1.40686 H        1 UNL1     0.0524
     122 H         0.538617   -6.053587   -2.995687 H        1 UNL1     0.0524
     123 H         1.792258   -6.353232   -1.765914 H        1 UNL1     0.0524
@<TRIPOS>BOND
     1     1     2    1
     2     1    42    1
     3     2     3    2
     4     3     4    1
     5     4     5    2
     6     5     7    1
     7     6    75    1
     8     6    76    1
     9     6    77    1
    10     7     9   am
    11     9    10    1
    12    10    11    2
    13    10    43    1
    14    11    14    1
    15    11    15    1
    16    12    13   ar
    17    12    27   ar
    18    12    43    1
    19    13    14    1
    20    13    30   ar
    21    14    17    2
    22    15    16    1
    23    16    17    1
    24    16    18    1
    25    16    22    1
    26    18    19    1
    27    19    20    1
    28    20    21    1
    29    21    22    1
    30    23    24    1
    31    23    88    1
    32    23    89    1
    33    24    25    1
    34    24    26    1
    35    24    90    1
    36    25    91    1
    37    25    92    1
    38    25    93    1
    39    26    94    1
    40    26    95    1
    41    26    96    1
    42    27    28   ar
    43    28    29   ar
    44    29    30   ar
    45    29    31    1
    46    30    33    1
    47    31    32    1
    48    32    33    1
    49    32    35    1
    50    34    97    1
    51    34    98    1
    52    34    99    1
    53    35    61    1
    54    36    37    1
    55    36    60    1
    56    37    38    1
    57    38    39    1
    58    39    40    1
    59    40    41    1
    60    41    42    1
    61    45   100    1
    62    47   101    1
    63    47   102    1
    64    47   103    1
    65    48   104    1
    66    49   105    1
    67    49   106    1
    68    49   107    1
    69    50   108    1
    70    51    59    1
    71    52   109    1
    72    52   110    1
    73    52   111    1
    74    53    54    1
    75    54    55    2
    76    54    56    1
    77    56   112    1
    78    56   113    1
    79    56   114    1
    80    57   115    1
    81    57   116    1
    82    57   117    1
    83    58   118    1
    84    58   119    1
    85    58   120    1
    86    59   121    1
    87    59   122    1
    88    59   123    1
    89    60    61    2
    90     1    47    1
    91     1    62    1
    92     2    63    1
    93     3    64    1
    94     4    65    1
    95     5     6    1
    96     7     8    2
    97     9    78    1
    98    15    79    1
    99    18    80    1
   100    18    81    1
   101    19    82    1
   102    19    83    1
   103    20    23    1
   104    21    84    1
   105    21    85    1
   106    22    86    1
   107    22    87    1
   108    27    45    1
   109    28    34    1
   110    32    58    1
   111    33    46    2
   112    36    51    1
   113    36    66    1
   114    37    52    1
   115    37    67    1
   116    38    53    1
   117    38    68    1
   118    42    48    1
   119    42    72    1
   120    43    44    2
   121    60    73    1
   122    61    74    1
   123    39    69    1
   124    39    57    1
   125    40    70    1
   126    40    50    1
   127    41    71    1
   128    41    49    1
