@<TRIPOS>MOLECULE
*****
 123 128 0 0 0
SMALL
GASTEIGER

@<TRIPOS>ATOM
     1 C         3.863915   2.764727   0.798612 C.3        1 UNL1     0.0009
     2 C         5.081821   3.610296   -0.314382 C.2        1 UNL1     -0.0787
     3 C         6.432658   3.76318   -0.812289 C.2        1 UNL1     -0.0649
     4 C         6.970847   4.75728   -2.072636 C.2        1 UNL1     -0.0542
     5 C         8.009095   4.985074   -3.009241 C.2        1 UNL1     0.0115
     6 C         9.449539   4.567871   -3.414685 C.3        1 UNL1     -0.0348
     7 C         7.715731   5.917256   -4.282805 C.2        1 UNL1     0.2441
     8 O         8.092459   7.078683   -4.35823 O.2        1 UNL1     -0.2702
     9 N         7.226891   5.236092   -5.411168 N.am        1 UNL1     -0.2772
     10 C         5.854451   5.150061   -5.362903 C.2        1 UNL1     0.1049
     11 C         5.35819   4.166025   -4.635153 C.2        1 UNL1     0.0801
     12 C         3.793192   6.517231   -4.989556 C.ar        1 UNL1     0.0753
     13 C         3.395121   5.516708   -4.046634 C.ar        1 UNL1     0.0305
     14 C         4.103492   4.24341   -3.937212 C.2        1 UNL1     0.0924
     15 N         5.969552   3.09787   -4.094959 N.pl3        1 UNL1     -0.3170
     16 C         4.952745   2.240851   -3.545528 C.3        1 UNL1     0.1275
     17 N         3.818463   3.174246   -3.199261 N.2        1 UNL1     -0.2557
     18 C         4.443296   1.358244   -4.680944 C.3        1 UNL1     0.0016
     19 C         5.624413   0.620069   -5.290575 C.3        1 UNL1     0.0026
     20 N         6.263448   -0.177667   -4.253135 N.3        1 UNL1     -0.3018
     21 C         6.732407   0.576856   -3.08903 C.3        1 UNL1     0.0026
     22 C         5.529075   1.306711   -2.489699 C.3        1 UNL1     0.0016
     23 C         7.205328   -1.14296   -4.783904 C.3        1 UNL1     0.0012
     24 C         8.390975   -0.428037   -5.4509 C.3        1 UNL1     -0.0339
     25 C         9.138214   0.472269   -4.453333 C.3        1 UNL1     -0.0615
     26 C         9.319946   -1.445515   -6.090065 C.3        1 UNL1     -0.0615
     27 C         3.042307   7.676028   -5.172534 C.ar        1 UNL1     0.1347
     28 C         1.85845   7.926133   -4.501729 C.ar        1 UNL1     0.0342
     29 C         1.512003   6.950253   -3.54319 C.ar        1 UNL1     0.1435
     30 C         2.273578   5.80185   -3.323204 C.ar        1 UNL1     0.0774
     31 O         0.33224   6.995006   -2.88656 O.3        1 UNL1     -0.4436
     32 C         0.138512   5.659288   -2.397478 C.3        1 UNL1     0.3143
     33 C         1.527143   5.056347   -2.331325 C.2        1 UNL1     0.2504
     34 C         0.875462   9.016776   -4.824731 C.3        1 UNL1     -0.0327
     35 O         -0.335558   5.763871   -1.049304 O.2        1 UNL1     -0.4528
     36 C         -2.520082   2.713322   -0.474767 C.3        1 UNL1     0.0854
     37 C         -2.154236   1.185455   -0.613693 C.3        1 UNL1     0.0236
     38 C         -2.43895   0.300775   0.693221 C.3        1 UNL1     0.1131
     39 C         -1.888944   0.776041   2.098171 C.3        1 UNL1     0.0200
     40 C         -0.33702   1.370727   2.240719 C.3        1 UNL1     0.0661
     41 C         1.068717   0.632527   1.643579 C.3        1 UNL1     0.0091
     42 C         2.622777   1.371544   1.007848 C.3        1 UNL1     0.0661
     43 C         4.983773   6.238896   -5.83057 C.2        1 UNL1     0.2131
     44 O         5.196946   6.785809   -6.897426 O.2        1 UNL1     -0.2851
     45 O         3.523646   8.620555   -6.076758 O.3        1 UNL1     -0.5056
     46 O         1.932021   4.174476   -1.607286 O.2        1 UNL1     -0.2836
     47 C         4.047978   3.245175   2.263286 C.3        1 UNL1     -0.0566
     48 O         3.504529   0.483735   1.803727 O.3        1 UNL1     -0.3909
     49 C         0.672634   -0.461289   0.67705 C.3        1 UNL1     -0.0577
     50 O         -0.305375   2.758123   1.972665 O.3        1 UNL1     -0.3910
     51 O         -2.882323   3.14502   0.81746 O.3        1 UNL1     -0.3753
     52 C         -0.88713   0.96921   -1.50399 C.3        1 UNL1     -0.0564
     53 O         -2.420201   -1.177274   0.433709 O.3        1 UNL1     -0.4608
     54 C         -3.223163   -2.102601   1.047674 C.2        1 UNL1     0.3042
     55 O         -2.979116   -2.742063   2.070106 O.2        1 UNL1     -0.2512
     56 C         -4.560325   -2.272887   0.384566 C.3        1 UNL1     0.0332
     57 C         -3.064087   1.576727   2.830369 C.3        1 UNL1     -0.0567
     58 C         -0.678751   4.912374   -3.477167 C.3        1 UNL1     0.0210
     59 C         -4.287193   3.258015   1.039803 C.3        1 UNL1     0.0372
     60 C         -1.478889   3.656465   -0.966255 C.2        1 UNL1     -0.0208
     61 C         -0.997865   4.774137   -0.420207 C.2        1 UNL1     0.0882
     62 H         3.067934   3.381752   0.364555 H        1 UNL1     0.0365
     63 H         4.448101   4.377532   -0.764068 H        1 UNL1     0.0576
     64 H         7.236329   3.091374   -0.502614 H        1 UNL1     0.0615
     65 H         6.129847   5.433512   -2.248451 H        1 UNL1     0.0622
     66 H         -3.387323   2.850704   -1.135877 H        1 UNL1     0.0645
     67 H         -2.910561   0.79134   -1.314554 H        1 UNL1     0.0362
     68 H         -3.53233   0.411105   0.755422 H        1 UNL1     0.0741
     69 H         -1.881866   -0.069334   2.773227 H        1 UNL1     0.0359
     70 H         -0.204824   1.297772   3.337197 H        1 UNL1     0.0600
     71 H         1.367862   0.040447   2.530659 H        1 UNL1     0.0348
     72 H         2.133927   2.157536   1.601614 H        1 UNL1     0.0602
     73 H         -1.205417   3.38951   -1.956808 H        1 UNL1     0.0628
     74 H         -1.182961   5.087379   0.607828 H        1 UNL1     0.1022
     75 H         9.576511   3.461836   -3.327511 H        1 UNL1     0.0279
     76 H         9.736737   4.756015   -4.446765 H        1 UNL1     0.0279
     77 H         10.211632   4.92986   -2.70908 H        1 UNL1     0.0279
     78 H         7.593134   4.286455   -5.422691 H        1 UNL1     0.1553
     79 H         6.863853   2.75659   -4.396101 H        1 UNL1     0.1484
     80 H         3.696517   0.660205   -4.283669 H        1 UNL1     0.0317
     81 H         3.936922   1.95742   -5.44529 H        1 UNL1     0.0317
     82 H         6.34148   1.312689   -5.755339 H        1 UNL1     0.0428
     83 H         5.238996   -0.001872   -6.099088 H        1 UNL1     0.0428
     84 H         7.135642   -0.054033   -2.290787 H        1 UNL1     0.0428
     85 H         7.564158   1.247765   -3.344741 H        1 UNL1     0.0428
     86 H         5.880045   1.737117   -1.570156 H        1 UNL1     0.0317
     87 H         4.7768   0.580199   -2.159004 H        1 UNL1     0.0317
     88 H         7.585395   -1.744586   -3.947909 H        1 UNL1     0.0429
     89 H         6.716553   -1.834796   -5.481927 H        1 UNL1     0.0429
     90 H         8.018531   0.195168   -6.272553 H        1 UNL1     0.0308
     91 H         8.532062   0.66921   -3.564009 H        1 UNL1     0.0233
     92 H         10.081648   0.012532   -4.149717 H        1 UNL1     0.0233
     93 H         9.397652   1.447083   -4.883756 H        1 UNL1     0.0233
     94 H         9.943692   -1.920402   -5.325043 H        1 UNL1     0.0233
     95 H         8.735357   -2.22804   -6.58187 H        1 UNL1     0.0233
     96 H         9.976061   -0.977692   -6.829404 H        1 UNL1     0.0233
     97 H         0.858411   9.24892   -5.885414 H        1 UNL1     0.0280
     98 H         -0.153255   8.737983   -4.561532 H        1 UNL1     0.0280
     99 H         1.146713   9.93281   -4.274823 H        1 UNL1     0.0280
     100 H         4.455645   8.599927   -6.205495 H        1 UNL1     0.2922
     101 H         3.264217   3.958443   2.517499 H        1 UNL1     0.0236
     102 H         5.042744   3.642443   2.462286 H        1 UNL1     0.0236
     103 H         3.923704   2.422886   2.987573 H        1 UNL1     0.0236
     104 H         3.629648   0.899956   2.678985 H        1 UNL1     0.2098
     105 H         1.497632   -0.870631   0.099444 H        1 UNL1     0.0234
     106 H         0.08333   -1.265934   1.116588 H        1 UNL1     0.0234
     107 H         -0.0   0.0   0.0 H        1 UNL1     0.0234
     108 H         -0.638006   2.885558   1.063332 H        1 UNL1     0.2098
     109 H         -0.830673   -0.051947   -1.906188 H        1 UNL1     0.0234
     110 H         -0.80917   1.690918   -2.324236 H        1 UNL1     0.0234
     111 H         0.038981   1.115068   -0.932158 H        1 UNL1     0.0234
     112 H         -4.422813   -2.570324   -0.659449 H        1 UNL1     0.0342
     113 H         -5.192147   -2.984728   0.913647 H        1 UNL1     0.0342
     114 H         -5.07375   -1.301555   0.393185 H        1 UNL1     0.0342
     115 H         -3.613642   2.223796   2.132888 H        1 UNL1     0.0234
     116 H         -3.794365   0.93606   3.328657 H        1 UNL1     0.0234
     117 H         -2.701359   2.315492   3.565621 H        1 UNL1     0.0234
     118 H         -0.033143   4.486609   -4.265152 H        1 UNL1     0.0309
     119 H         -1.311332   4.119648   -3.065306 H        1 UNL1     0.0309
     120 H         -1.349158   5.577751   -4.032085 H        1 UNL1     0.0309
     121 H         -4.487222   2.928634   2.059044 H        1 UNL1     0.0524
     122 H         -4.642439   4.298213   0.951336 H        1 UNL1     0.0524
     123 H         -4.830747   2.638419   0.33217 H        1 UNL1     0.0524
@<TRIPOS>BOND
     1     1     2    1
     2     1    42    1
     3     2     3    2
     4     3     4    1
     5     4     5    2
     6     5     7    1
     7     6    75    1
     8     6    76    1
     9     6    77    1
    10     7     9   am
    11     9    10    1
    12    10    11    2
    13    10    43    1
    14    11    14    1
    15    11    15    1
    16    12    13   ar
    17    12    27   ar
    18    12    43    1
    19    13    14    1
    20    13    30   ar
    21    14    17    2
    22    15    16    1
    23    16    17    1
    24    16    18    1
    25    16    22    1
    26    18    19    1
    27    19    20    1
    28    20    21    1
    29    21    22    1
    30    23    24    1
    31    23    88    1
    32    23    89    1
    33    24    25    1
    34    24    26    1
    35    24    90    1
    36    25    91    1
    37    25    92    1
    38    25    93    1
    39    26    94    1
    40    26    95    1
    41    26    96    1
    42    27    28   ar
    43    28    29   ar
    44    29    30   ar
    45    29    31    1
    46    30    33    1
    47    31    32    1
    48    32    33    1
    49    32    35    1
    50    34    97    1
    51    34    98    1
    52    34    99    1
    53    35    61    1
    54    36    37    1
    55    36    60    1
    56    37    38    1
    57    38    39    1
    58    39    40    1
    59    40    41    1
    60    41    42    1
    61    45   100    1
    62    47   101    1
    63    47   102    1
    64    47   103    1
    65    48   104    1
    66    49   105    1
    67    49   106    1
    68    49   107    1
    69    50   108    1
    70    51    59    1
    71    52   109    1
    72    52   110    1
    73    52   111    1
    74    53    54    1
    75    54    55    2
    76    54    56    1
    77    56   112    1
    78    56   113    1
    79    56   114    1
    80    57   115    1
    81    57   116    1
    82    57   117    1
    83    58   118    1
    84    58   119    1
    85    58   120    1
    86    59   121    1
    87    59   122    1
    88    59   123    1
    89    60    61    2
    90     1    47    1
    91     1    62    1
    92     2    63    1
    93     3    64    1
    94     4    65    1
    95     5     6    1
    96     7     8    2
    97     9    78    1
    98    15    79    1
    99    18    80    1
   100    18    81    1
   101    19    82    1
   102    19    83    1
   103    20    23    1
   104    21    84    1
   105    21    85    1
   106    22    86    1
   107    22    87    1
   108    27    45    1
   109    28    34    1
   110    32    58    1
   111    33    46    2
   112    36    51    1
   113    36    66    1
   114    37    52    1
   115    37    67    1
   116    38    53    1
   117    38    68    1
   118    42    48    1
   119    42    72    1
   120    43    44    2
   121    60    73    1
   122    61    74    1
   123    39    69    1
   124    39    57    1
   125    40    70    1
   126    40    50    1
   127    41    71    1
   128    41    49    1
