@<TRIPOS>MOLECULE
*****
 123 128 0 0 0
SMALL
GASTEIGER

@<TRIPOS>ATOM
     1 C         5.188235   1.664444   0.557774 C.3        1 UNL1     0.0009
     2 C         6.650878   2.440704   -0.275973 C.2        1 UNL1     -0.0787
     3 C         7.940658   2.316616   -0.921819 C.2        1 UNL1     -0.0649
     4 C         8.850077   3.53187   -1.671801 C.2        1 UNL1     -0.0542
     5 C         9.88876   3.801215   -2.596824 C.2        1 UNL1     0.0115
     6 C         11.018919   3.151264   -3.441588 C.3        1 UNL1     -0.0348
     7 C         10.018264   5.278721   -3.210985 C.2        1 UNL1     0.2441
     8 O         10.850272   6.088755   -2.826104 O.2        1 UNL1     -0.2702
     9 N         9.289145   5.490791   -4.394016 N.am        1 UNL1     -0.2772
     10 C         8.008657   5.901078   -4.101891 C.2        1 UNL1     0.1049
     11 C         7.142259   4.945977   -3.816655 C.2        1 UNL1     0.0801
     12 C         6.7169   7.538454   -2.720697 C.ar        1 UNL1     0.0753
     13 C         5.93224   6.426413   -2.277661 C.ar        1 UNL1     0.0305
     14 C         6.036571   5.114802   -2.913147 C.2        1 UNL1     0.0924
     15 N         7.244655   3.614123   -3.965679 N.pl3        1 UNL1     -0.3170
     16 C         5.960279   3.038506   -3.666851 C.3        1 UNL1     0.1275
     17 N         5.325692   4.010628   -2.702484 N.2        1 UNL1     -0.2557
     18 C         5.127431   3.103838   -4.943486 C.3        1 UNL1     0.0016
     19 C         5.887281   2.399858   -6.056423 C.3        1 UNL1     0.0026
     20 N         6.128228   1.019902   -5.658058 N.3        1 UNL1     -0.3018
     21 C         6.87025   0.854618   -4.406478 C.3        1 UNL1     0.0026
     22 C         6.086763   1.565378   -3.301551 C.3        1 UNL1     0.0016
     23 C         6.575202   0.18586   -6.755888 C.3        1 UNL1     0.0012
     24 C         5.430412   -0.050386   -7.753585 C.3        1 UNL1     -0.0339
     25 C         5.540046   0.886818   -8.967539 C.3        1 UNL1     -0.0615
     26 C         5.399391   -1.509314   -8.174711 C.3        1 UNL1     -0.0615
     27 C         6.525791   8.812866   -2.192048 C.ar        1 UNL1     0.1347
     28 C         5.557285   9.104733   -1.248193 C.ar        1 UNL1     0.0342
     29 C         4.829804   7.985272   -0.791312 C.ar        1 UNL1     0.1435
     30 C         5.034941   6.696499   -1.285481 C.ar        1 UNL1     0.0774
     31 O         3.778322   8.121882   0.045785 O.3        1 UNL1     -0.4436
     32 C         3.038015   6.900531   -0.099538 C.3        1 UNL1     0.3143
     33 C         4.042104   5.887059   -0.610315 C.2        1 UNL1     0.2504
     34 C         5.127201   10.480992   -0.822706 C.3        1 UNL1     -0.0327
     35 O         2.650501   6.478458   1.213832 O.2        1 UNL1     -0.4528
     36 C         -0.618623   4.598778   0.780571 C.3        1 UNL1     0.0854
     37 C         -0.931918   3.337778   -0.113436 C.3        1 UNL1     0.0236
     38 C         -1.565431   2.092149   0.673211 C.3        1 UNL1     0.1131
     39 C         -0.868202   1.557427   1.988587 C.3        1 UNL1     0.0200
     40 C         0.789486   1.384129   2.055503 C.3        1 UNL1     0.0661
     41 C         1.752922   0.591705   0.905952 C.3        1 UNL1     0.0091
     42 C         3.474606   0.921747   0.365325 C.3        1 UNL1     0.0661
     43 C         7.679825   7.307531   -3.826007 C.2        1 UNL1     0.2131
     44 O         8.105524   8.194086   -4.544018 O.2        1 UNL1     -0.2851
     45 O         7.362232   9.831141   -2.644731 O.3        1 UNL1     -0.5056
     46 O         4.035716   4.684293   -0.471869 O.2        1 UNL1     -0.2836
     47 C         5.555846   1.23761   2.004375 C.3        1 UNL1     -0.0566
     48 O         3.897887   -0.496173   0.462544 O.3        1 UNL1     -0.3909
     49 C         0.933414   0.365247   -0.344895 C.3        1 UNL1     -0.0577
     50 O         1.404372   2.594191   2.449696 O.3        1 UNL1     -0.3910
     51 O         -0.766564   4.420194   2.171129 O.3        1 UNL1     -0.3753
     52 C         0.126663   3.152275   -1.249193 C.3        1 UNL1     -0.0564
     53 O         -2.172155   1.05771   -0.22909 O.3        1 UNL1     -0.4608
     54 C         -2.433734   -0.242683   0.115129 C.2        1 UNL1     0.3042
     55 O         -1.874235   -1.253987   -0.306847 O.2        1 UNL1     -0.2512
     56 C         -3.493691   -0.383937   1.170236 C.3        1 UNL1     0.0332
     57 C         -1.596418   2.246612   3.234741 C.3        1 UNL1     -0.0567
     58 C         1.983353   7.156746   -1.201161 C.3        1 UNL1     0.0210
     59 C         -1.070655   5.609064   2.899127 C.3        1 UNL1     0.0372
     60 C         0.724139   5.203835   0.565965 C.2        1 UNL1     -0.0208
     61 C         1.631322   5.629189   1.446214 C.2        1 UNL1     0.0882
     62 H         4.727849   2.657054   0.631816 H        1 UNL1     0.0365
     63 H         6.401026   3.499505   -0.181192 H        1 UNL1     0.0576
     64 H         8.385063   1.340772   -1.130004 H        1 UNL1     0.0615
     65 H         8.37351   4.457576   -1.337983 H        1 UNL1     0.0622
     66 H         -1.345804   5.355756   0.454628 H        1 UNL1     0.0645
     67 H         -1.782918   3.657765   -0.739509 H        1 UNL1     0.0362
     68 H         -2.510065   2.547212   1.008034 H        1 UNL1     0.0741
     69 H         -1.219707   0.553352   2.185271 H        1 UNL1     0.0359
     70 H         0.87694   0.727702   2.94236 H        1 UNL1     0.0600
     71 H         1.772817   -0.427276   1.339818 H        1 UNL1     0.0348
     72 H         3.362497   1.417979   1.340261 H        1 UNL1     0.0602
     73 H         0.860741   5.392376   -0.469912 H        1 UNL1     0.0628
     74 H         1.594323   5.425756   2.516954 H        1 UNL1     0.1022
     75 H         11.024011   2.043185   -3.303136 H        1 UNL1     0.0279
     76 H         10.936551   3.252041   -4.521462 H        1 UNL1     0.0279
     77 H         12.024225   3.418965   -3.08466 H        1 UNL1     0.0279
     78 H         9.220179   4.618645   -4.914288 H        1 UNL1     0.1553
     79 H         7.911653   3.170986   -4.57039 H        1 UNL1     0.1484
     80 H         4.155177   2.630468   -4.760704 H        1 UNL1     0.0317
     81 H         4.922506   4.142499   -5.224269 H        1 UNL1     0.0317
     82 H         6.830409   2.913759   -6.293758 H        1 UNL1     0.0428
     83 H         5.27646   2.459794   -6.957731 H        1 UNL1     0.0428
     84 H         6.968241   -0.1882   -4.089083 H        1 UNL1     0.0428
     85 H         7.90787   1.204527   -4.497165 H        1 UNL1     0.0428
     86 H         6.585326   1.312197   -2.384315 H        1 UNL1     0.0317
     87 H         5.097601   1.105165   -3.188158 H        1 UNL1     0.0317
     88 H         7.388088   0.710723   -7.274568 H        1 UNL1     0.0429
     89 H         6.98642   -0.764798   -6.392675 H        1 UNL1     0.0429
     90 H         4.473163   0.137259   -7.252908 H        1 UNL1     0.0308
     91 H         6.500904   0.767065   -9.476962 H        1 UNL1     0.0233
     92 H         4.731629   0.695904   -9.677203 H        1 UNL1     0.0233
     93 H         5.457945   1.944066   -8.687678 H        1 UNL1     0.0233
     94 H         4.717522   -1.643623   -9.021381 H        1 UNL1     0.0233
     95 H         6.396504   -1.828183   -8.49102 H        1 UNL1     0.0233
     96 H         5.065662   -2.153784   -7.356633 H        1 UNL1     0.0233
     97 H         4.31605   10.449589   -0.101403 H        1 UNL1     0.0280
     98 H         5.939863   11.036858   -0.337062 H        1 UNL1     0.0280
     99 H         4.785001   11.049344   -1.70303 H        1 UNL1     0.0280
     100 H         6.912856   10.587962   -2.977755 H        1 UNL1     0.2922
     101 H         4.675381   0.833366   2.503399 H        1 UNL1     0.0236
     102 H         6.022688   2.035358   2.581124 H        1 UNL1     0.0236
     103 H         6.288972   0.413904   2.019454 H        1 UNL1     0.0236
     104 H         4.29677   -0.625052   1.345297 H        1 UNL1     0.2098
     105 H         0.744589   1.263819   -0.926896 H        1 UNL1     0.0234
     106 H         1.299068   -0.43312   -0.990522 H        1 UNL1     0.0234
     107 H         0.0   -0.0   0.0 H        1 UNL1     0.0234
     108 H         1.242409   3.246235   1.740912 H        1 UNL1     0.2098
     109 H         1.145334   3.036334   -0.853491 H        1 UNL1     0.0234
     110 H         -0.10325   2.317167   -1.919624 H        1 UNL1     0.0234
     111 H         0.163757   4.025243   -1.914397 H        1 UNL1     0.0234
     112 H         -3.638541   -1.441007   1.413071 H        1 UNL1     0.0342
     113 H         -3.261843   0.193966   2.063611 H        1 UNL1     0.0342
     114 H         -4.438315   0.000151   0.761183 H        1 UNL1     0.0342
     115 H         -2.67055   2.01668   3.258393 H        1 UNL1     0.0234
     116 H         -1.17908   1.965738   4.203754 H        1 UNL1     0.0234
     117 H         -1.61558   3.348626   3.1787 H        1 UNL1     0.0234
     118 H         1.084004   7.66005   -0.805103 H        1 UNL1     0.0309
     119 H         2.374751   7.73424   -2.044671 H        1 UNL1     0.0309
     120 H         1.586489   6.228763   -1.627134 H        1 UNL1     0.0309
     121 H         -0.219571   6.282425   2.801166 H        1 UNL1     0.0524
     122 H         -1.954958   6.131092   2.497216 H        1 UNL1     0.0524
     123 H         -1.244816   5.374852   3.945505 H        1 UNL1     0.0524
@<TRIPOS>BOND
     1     1     2    1
     2     1    42    1
     3     2     3    2
     4     3     4    1
     5     4     5    2
     6     5     7    1
     7     6    75    1
     8     6    76    1
     9     6    77    1
    10     7     9   am
    11     9    10    1
    12    10    11    2
    13    10    43    1
    14    11    14    1
    15    11    15    1
    16    12    13   ar
    17    12    27   ar
    18    12    43    1
    19    13    14    1
    20    13    30   ar
    21    14    17    2
    22    15    16    1
    23    16    17    1
    24    16    18    1
    25    16    22    1
    26    18    19    1
    27    19    20    1
    28    20    21    1
    29    21    22    1
    30    23    24    1
    31    23    88    1
    32    23    89    1
    33    24    25    1
    34    24    26    1
    35    24    90    1
    36    25    91    1
    37    25    92    1
    38    25    93    1
    39    26    94    1
    40    26    95    1
    41    26    96    1
    42    27    28   ar
    43    28    29   ar
    44    29    30   ar
    45    29    31    1
    46    30    33    1
    47    31    32    1
    48    32    33    1
    49    32    35    1
    50    34    97    1
    51    34    98    1
    52    34    99    1
    53    35    61    1
    54    36    37    1
    55    36    60    1
    56    37    38    1
    57    38    39    1
    58    39    40    1
    59    40    41    1
    60    41    42    1
    61    45   100    1
    62    47   101    1
    63    47   102    1
    64    47   103    1
    65    48   104    1
    66    49   105    1
    67    49   106    1
    68    49   107    1
    69    50   108    1
    70    51    59    1
    71    52   109    1
    72    52   110    1
    73    52   111    1
    74    53    54    1
    75    54    55    2
    76    54    56    1
    77    56   112    1
    78    56   113    1
    79    56   114    1
    80    57   115    1
    81    57   116    1
    82    57   117    1
    83    58   118    1
    84    58   119    1
    85    58   120    1
    86    59   121    1
    87    59   122    1
    88    59   123    1
    89    60    61    2
    90     1    47    1
    91     1    62    1
    92     2    63    1
    93     3    64    1
    94     4    65    1
    95     5     6    1
    96     7     8    2
    97     9    78    1
    98    15    79    1
    99    18    80    1
   100    18    81    1
   101    19    82    1
   102    19    83    1
   103    20    23    1
   104    21    84    1
   105    21    85    1
   106    22    86    1
   107    22    87    1
   108    27    45    1
   109    28    34    1
   110    32    58    1
   111    33    46    2
   112    36    51    1
   113    36    66    1
   114    37    52    1
   115    37    67    1
   116    38    53    1
   117    38    68    1
   118    42    48    1
   119    42    72    1
   120    43    44    2
   121    60    73    1
   122    61    74    1
   123    39    69    1
   124    39    57    1
   125    40    70    1
   126    40    50    1
   127    41    71    1
   128    41    49    1
