@<TRIPOS>MOLECULE
*****
 123 128 0 0 0
SMALL
GASTEIGER

@<TRIPOS>ATOM
     1 C         3.815233   -1.626115   2.494403 C.3        1 UNL1     0.0009
     2 C         4.879378   -3.139802   2.610097 C.2        1 UNL1     -0.0787
     3 C         5.099658   -4.486322   3.094251 C.2        1 UNL1     -0.0649
     4 C         6.38131   -5.528676   2.723811 C.2        1 UNL1     -0.0542
     5 C         6.812682   -6.878011   2.706754 C.2        1 UNL1     0.0115
     6 C         6.456262   -8.317167   3.170563 C.3        1 UNL1     -0.0348
     7 C         8.079853   -7.277167   1.805677 C.2        1 UNL1     0.2441
     8 O         9.195212   -7.464787   2.27183 O.2        1 UNL1     -0.2702
     9 N         7.770051   -7.651625   0.486603 N.am        1 UNL1     -0.2772
     10 C         7.741848   -6.546238   -0.332327 C.2        1 UNL1     0.1049
     11 C         6.618152   -5.85232   -0.334931 C.2        1 UNL1     0.0801
     12 C         9.048121   -4.506357   -0.956722 C.ar        1 UNL1     0.0753
     13 C         7.843019   -3.764627   -0.741843 C.ar        1 UNL1     0.0305
     14 C         6.557242   -4.43223   -0.551748 C.2        1 UNL1     0.0924
     15 N         5.412071   -6.159437   0.172588 N.pl3        1 UNL1     -0.3170
     16 C         4.486144   -5.141691   -0.248251 C.3        1 UNL1     0.1275
     17 N         5.338667   -3.91117   -0.439949 N.2        1 UNL1     -0.2557
     18 C         3.986364   -5.531044   -1.636172 C.3        1 UNL1     0.0016
     19 C         3.392917   -6.929018   -1.564904 C.3        1 UNL1     0.0026
     20 N         2.304134   -6.926242   -0.597655 N.3        1 UNL1     -0.3018
     21 C         2.675107   -6.504928   0.75484 C.3        1 UNL1     0.0026
     22 C         3.264589   -5.096577   0.660218 C.3        1 UNL1     0.0016
     23 C         1.48266   -8.118139   -0.669814 C.3        1 UNL1     0.0012
     24 C         0.652617   -8.122721   -1.963168 C.3        1 UNL1     -0.0339
     25 C         -0.719695   -8.78201   -1.748332 C.3        1 UNL1     -0.0615
     26 C         0.515473   -6.708193   -2.49897 C.3        1 UNL1     -0.0615
     27 C         10.247073   -3.864133   -1.257025 C.ar        1 UNL1     0.1347
     28 C         10.355794   -2.493153   -1.407509 C.ar        1 UNL1     0.0342
     29 C         9.167339   -1.779767   -1.143277 C.ar        1 UNL1     0.1435
     30 C         7.967367   -2.407078   -0.805981 C.ar        1 UNL1     0.0774
     31 O         9.083126   -0.448028   -1.353959 O.3        1 UNL1     -0.4436
     32 C         7.674943   -0.183063   -1.441628 C.3        1 UNL1     0.3143
     33 C         7.009979   -1.325784   -0.701207 C.2        1 UNL1     0.2504
     34 C         11.540464   -1.759258   -1.971471 C.3        1 UNL1     -0.0327
     35 O         7.417897   1.00815   -0.687843 O.2        1 UNL1     -0.4528
     36 C         4.441134   2.672248   -2.354502 C.3        1 UNL1     0.0854
     37 C         2.998529   2.094465   -2.62391 C.3        1 UNL1     0.0236
     38 C         1.796027   2.978196   -2.036755 C.3        1 UNL1     0.1131
     39 C         1.82745   3.440896   -0.524409 C.3        1 UNL1     0.0200
     40 C         2.280209   2.374886   0.676037 C.3        1 UNL1     0.0661
     41 C         1.672108   0.806224   0.893116 C.3        1 UNL1     0.0091
     42 C         2.482793   -0.704661   1.545357 C.3        1 UNL1     0.0661
     43 C         8.960082   -5.987619   -0.937476 C.2        1 UNL1     0.2131
     44 O         9.774746   -6.717295   -1.472857 O.2        1 UNL1     -0.2851
     45 O         11.383486   -4.656406   -1.406379 O.3        1 UNL1     -0.5056
     46 O         5.940661   -1.334898   -0.133467 O.2        1 UNL1     -0.2836
     47 C         3.852847   -0.837055   3.830797 C.3        1 UNL1     -0.0566
     48 O         1.363926   -1.050004   2.455297 O.3        1 UNL1     -0.3909
     49 C         0.91669   0.398999   -0.352277 C.3        1 UNL1     -0.0577
     50 O         3.683504   2.376743   0.8448 O.3        1 UNL1     -0.3910
     51 O         4.507743   3.785453   -1.492082 O.3        1 UNL1     -0.3753
     52 C         2.980108   0.531569   -2.579575 C.3        1 UNL1     -0.0564
     53 O         0.452357   2.610658   -2.595141 O.3        1 UNL1     -0.4608
     54 C         -0.732271   2.64985   -1.907354 C.2        1 UNL1     0.3042
     55 O         -1.350011   1.699328   -1.429082 O.2        1 UNL1     -0.2512
     56 C         -1.259708   4.040602   -1.696806 C.3        1 UNL1     0.0332
     57 C         2.44588   4.915372   -0.483922 C.3        1 UNL1     -0.0567
     58 C         7.304641   -0.277002   -2.940155 C.3        1 UNL1     0.0210
     59 C         4.808407   5.023791   -2.133943 C.3        1 UNL1     0.0372
     60 C         5.432003   1.681165   -1.853408 C.2        1 UNL1     -0.0208
     61 C         6.324806   1.774333   -0.867018 C.2        1 UNL1     0.0882
     62 H         4.568275   -1.170092   1.840428 H        1 UNL1     0.0365
     63 H         5.772718   -2.801564   2.080939 H        1 UNL1     0.0576
     64 H         4.328876   -5.029721   3.645359 H        1 UNL1     0.0615
     65 H         7.120381   -4.875525   2.251953 H        1 UNL1     0.0622
     66 H         4.802296   2.985434   -3.34421 H        1 UNL1     0.0645
     67 H         2.856241   2.224721   -3.710808 H        1 UNL1     0.0362
     68 H         1.938214   3.896953   -2.625984 H        1 UNL1     0.0741
     69 H         0.826592   3.722998   -0.225896 H        1 UNL1     0.0359
     70 H         1.894175   2.911944   1.563509 H        1 UNL1     0.0600
     71 H         0.839608   1.016755   1.592815 H        1 UNL1     0.0348
     72 H         3.092307   0.141383   1.894668 H        1 UNL1     0.0602
     73 H         5.442429   0.839759   -2.500846 H        1 UNL1     0.0628
     74 H         6.343772   2.574153   -0.12596 H        1 UNL1     0.1022
     75 H         5.454056   -8.333466   3.662854 H        1 UNL1     0.0279
     76 H         6.345477   -9.065328   2.388866 H        1 UNL1     0.0279
     77 H         7.103653   -8.674098   3.984925 H        1 UNL1     0.0279
     78 H         6.845416   -8.076373   0.459825 H        1 UNL1     0.1553
     79 H         5.125935   -7.093355   0.402495 H        1 UNL1     0.1484
     80 H         3.24236   -4.796499   -1.967334 H        1 UNL1     0.0317
     81 H         4.80125   -5.503359   -2.367504 H        1 UNL1     0.0317
     82 H         4.152254   -7.680841   -1.30398 H        1 UNL1     0.0428
     83 H         3.044425   -7.187434   -2.565316 H        1 UNL1     0.0428
     84 H         1.825366   -6.434942   1.441027 H        1 UNL1     0.0428
     85 H         3.348946   -7.226356   1.237334 H        1 UNL1     0.0428
     86 H         3.399936   -4.770573   1.674806 H        1 UNL1     0.0317
     87 H         2.512379   -4.401068   0.268371 H        1 UNL1     0.0317
     88 H         2.147922   -8.991435   -0.678395 H        1 UNL1     0.0429
     89 H         0.838938   -8.21289   0.214164 H        1 UNL1     0.0429
     90 H         1.192801   -8.684175   -2.73465 H        1 UNL1     0.0308
     91 H         -1.160977   -8.479985   -0.793788 H        1 UNL1     0.0233
     92 H         -1.404626   -8.521233   -2.558563 H        1 UNL1     0.0233
     93 H         -0.66003   -9.877083   -1.738898 H        1 UNL1     0.0233
     94 H         -0.242793   -6.675331   -3.288772 H        1 UNL1     0.0233
     95 H         0.197648   -6.034532   -1.698264 H        1 UNL1     0.0233
     96 H         1.460556   -6.34452   -2.91192 H        1 UNL1     0.0233
     97 H         11.276217   -1.167767   -2.842989 H        1 UNL1     0.0280
     98 H         11.972513   -1.054104   -1.249427 H        1 UNL1     0.0280
     99 H         12.316504   -2.483802   -2.267938 H        1 UNL1     0.0280
     100 H         11.522355   -5.276613   -0.712346 H        1 UNL1     0.2922
     101 H         3.540549   0.192746   3.658646 H        1 UNL1     0.0236
     102 H         4.81715   -0.89319   4.334734 H        1 UNL1     0.0236
     103 H         3.129158   -1.230066   4.564289 H        1 UNL1     0.0236
     104 H         0.631754   -0.429522   2.27119 H        1 UNL1     0.2098
     105 H         0.685107   1.220326   -1.025778 H        1 UNL1     0.0234
     106 H         1.361723   -0.428497   -0.904657 H        1 UNL1     0.0234
     107 H         0.0   -0.0   0.0 H        1 UNL1     0.0234
     108 H         3.912497   1.591862   1.378926 H        1 UNL1     0.2098
     109 H         3.635455   0.086073   -3.340998 H        1 UNL1     0.0234
     110 H         3.234494   0.125918   -1.594446 H        1 UNL1     0.0234
     111 H         1.976887   0.132773   -2.780709 H        1 UNL1     0.0234
     112 H         -2.192385   4.002438   -1.125838 H        1 UNL1     0.0342
     113 H         -0.529942   4.686088   -1.210357 H        1 UNL1     0.0342
     114 H         -1.484671   4.474835   -2.680675 H        1 UNL1     0.0342
     115 H         1.996872   5.524842   0.312399 H        1 UNL1     0.0234
     116 H         3.52851   4.939029   -0.344635 H        1 UNL1     0.0234
     117 H         2.204013   5.518504   -1.375927 H        1 UNL1     0.0234
     118 H         7.047419   0.708543   -3.366233 H        1 UNL1     0.0309
     119 H         8.089963   -0.736392   -3.548787 H        1 UNL1     0.0309
     120 H         6.400454   -0.870782   -3.113295 H        1 UNL1     0.0309
     121 H         5.276302   5.673275   -1.394618 H        1 UNL1     0.0524
     122 H         5.520996   4.901266   -2.966554 H        1 UNL1     0.0524
     123 H         3.89887   5.481348   -2.51273 H        1 UNL1     0.0524
@<TRIPOS>BOND
     1     1     2    1
     2     1    42    1
     3     2     3    2
     4     3     4    1
     5     4     5    2
     6     5     7    1
     7     6    75    1
     8     6    76    1
     9     6    77    1
    10     7     9   am
    11     9    10    1
    12    10    11    2
    13    10    43    1
    14    11    14    1
    15    11    15    1
    16    12    13   ar
    17    12    27   ar
    18    12    43    1
    19    13    14    1
    20    13    30   ar
    21    14    17    2
    22    15    16    1
    23    16    17    1
    24    16    18    1
    25    16    22    1
    26    18    19    1
    27    19    20    1
    28    20    21    1
    29    21    22    1
    30    23    24    1
    31    23    88    1
    32    23    89    1
    33    24    25    1
    34    24    26    1
    35    24    90    1
    36    25    91    1
    37    25    92    1
    38    25    93    1
    39    26    94    1
    40    26    95    1
    41    26    96    1
    42    27    28   ar
    43    28    29   ar
    44    29    30   ar
    45    29    31    1
    46    30    33    1
    47    31    32    1
    48    32    33    1
    49    32    35    1
    50    34    97    1
    51    34    98    1
    52    34    99    1
    53    35    61    1
    54    36    37    1
    55    36    60    1
    56    37    38    1
    57    38    39    1
    58    39    40    1
    59    40    41    1
    60    41    42    1
    61    45   100    1
    62    47   101    1
    63    47   102    1
    64    47   103    1
    65    48   104    1
    66    49   105    1
    67    49   106    1
    68    49   107    1
    69    50   108    1
    70    51    59    1
    71    52   109    1
    72    52   110    1
    73    52   111    1
    74    53    54    1
    75    54    55    2
    76    54    56    1
    77    56   112    1
    78    56   113    1
    79    56   114    1
    80    57   115    1
    81    57   116    1
    82    57   117    1
    83    58   118    1
    84    58   119    1
    85    58   120    1
    86    59   121    1
    87    59   122    1
    88    59   123    1
    89    60    61    2
    90     1    47    1
    91     1    62    1
    92     2    63    1
    93     3    64    1
    94     4    65    1
    95     5     6    1
    96     7     8    2
    97     9    78    1
    98    15    79    1
    99    18    80    1
   100    18    81    1
   101    19    82    1
   102    19    83    1
   103    20    23    1
   104    21    84    1
   105    21    85    1
   106    22    86    1
   107    22    87    1
   108    27    45    1
   109    28    34    1
   110    32    58    1
   111    33    46    2
   112    36    51    1
   113    36    66    1
   114    37    52    1
   115    37    67    1
   116    38    53    1
   117    38    68    1
   118    42    48    1
   119    42    72    1
   120    43    44    2
   121    60    73    1
   122    61    74    1
   123    39    69    1
   124    39    57    1
   125    40    70    1
   126    40    50    1
   127    41    71    1
   128    41    49    1
