@<TRIPOS>MOLECULE
*****
 123 128 0 0 0
SMALL
GASTEIGER

@<TRIPOS>ATOM
     1 C         0.25885   0.015485   4.11912 C.3        1 UNL1     0.0009
     2 C         -0.935628   -0.72354   5.32912 C.2        1 UNL1     -0.0787
     3 C         -2.056067   -0.58068   6.234799 C.2        1 UNL1     -0.0649
     4 C         -2.873101   -1.799292   7.079665 C.2        1 UNL1     -0.0542
     5 C         -4.071504   -2.141974   7.753072 C.2        1 UNL1     0.0115
     6 C         -5.402131   -1.573234   8.318127 C.3        1 UNL1     -0.0348
     7 C         -4.405496   -3.691914   8.004321 C.2        1 UNL1     0.2441
     8 O         -4.246811   -4.239876   9.086487 O.2        1 UNL1     -0.2702
     9 N         -5.135567   -4.311446   6.975085 N.am        1 UNL1     -0.2772
     10 C         -4.284152   -4.818068   6.02023 C.2        1 UNL1     0.1049
     11 C         -3.854075   -3.962264   5.110914 C.2        1 UNL1     0.0801
     12 C         -2.227283   -6.213   5.735997 C.ar        1 UNL1     0.0753
     13 C         -1.717031   -5.154168   4.919219 C.ar        1 UNL1     0.0305
     14 C         -2.568223   -4.053135   4.473966 C.2        1 UNL1     0.0924
     15 N         -4.271618   -2.715453   4.832262 N.pl3        1 UNL1     -0.3170
     16 C         -3.592256   -2.280542   3.640803 C.3        1 UNL1     0.1275
     17 N         -2.294718   -3.05133   3.642998 N.2        1 UNL1     -0.2557
     18 C         -4.391387   -2.80001   2.449482 C.3        1 UNL1     0.0016
     19 C         -5.823731   -2.30497   2.571606 C.3        1 UNL1     0.0026
     20 N         -5.814472   -0.848931   2.601514 N.3        1 UNL1     -0.3018
     21 C         -5.019544   -0.254232   3.677985 C.3        1 UNL1     0.0026
     22 C         -3.583656   -0.761361   3.533275 C.3        1 UNL1     0.0016
     23 C         -7.131242   -0.272667   2.415286 C.3        1 UNL1     0.0012
     24 C         -7.609657   -0.47843   0.969417 C.3        1 UNL1     -0.0339
     25 C         -8.517031   -1.713711   0.847718 C.3        1 UNL1     -0.0615
     26 C         -8.302785   0.776016   0.466709 C.3        1 UNL1     -0.0615
     27 C         -1.443878   -7.319362   6.055931 C.ar        1 UNL1     0.1347
     28 C         -0.15452   -7.496573   5.586672 C.ar        1 UNL1     0.0342
     29 C         0.343831   -6.418509   4.824709 C.ar        1 UNL1     0.1435
     30 C         -0.416884   -5.287368   4.526293 C.ar        1 UNL1     0.0774
     31 O         1.542434   -6.487856   4.205397 O.3        1 UNL1     -0.4436
     32 C         1.486946   -5.471445   3.193121 C.3        1 UNL1     0.3143
     33 C         0.440466   -4.487791   3.676355 C.2        1 UNL1     0.2504
     34 C         0.650883   -8.762681   5.678305 C.3        1 UNL1     -0.0327
     35 O         2.74439   -4.78456   3.209786 O.2        1 UNL1     -0.4528
     36 C         3.326638   -3.593262   -0.346882 C.3        1 UNL1     0.0854
     37 C         2.420469   -2.670294   -1.249384 C.3        1 UNL1     0.0236
     38 C         3.154013   -1.371914   -1.839187 C.3        1 UNL1     0.1131
     39 C         3.956879   -0.414914   -0.86871 C.3        1 UNL1     0.0200
     40 C         3.319293   0.015606   0.611349 C.3        1 UNL1     0.0661
     41 C         1.756176   0.615896   0.883243 C.3        1 UNL1     0.0091
     42 C         0.639364   0.41758   2.325049 C.3        1 UNL1     0.0661
     43 C         -3.648187   -6.136824   6.157291 C.2        1 UNL1     0.2131
     44 O         -4.302059   -7.105893   6.498016 O.2        1 UNL1     -0.2851
     45 O         -2.000678   -8.283532   6.893659 O.3        1 UNL1     -0.5056
     46 O         0.348133   -3.305458   3.432598 O.2        1 UNL1     -0.2836
     47 C         1.331579   0.854505   4.864291 C.3        1 UNL1     -0.0566
     48 O         0.298189   1.858613   2.403407 O.3        1 UNL1     -0.3909
     49 C         0.921663   0.383455   -0.356537 C.3        1 UNL1     -0.0577
     50 O         3.646459   -0.943935   1.596218 O.3        1 UNL1     -0.3910
     51 O         4.601454   -3.082694   -0.028141 O.3        1 UNL1     -0.3753
     52 C         0.942082   -2.631075   -0.741662 C.3        1 UNL1     -0.0564
     53 O         2.399581   -0.711065   -2.955626 O.3        1 UNL1     -0.4608
     54 C         2.57666   0.579859   -3.379995 C.2        1 UNL1     0.3042
     55 O         1.788295   1.517777   -3.267616 O.2        1 UNL1     -0.2512
     56 C         3.924457   0.831602   -3.99382 C.3        1 UNL1     0.0332
     57 C         5.493368   -0.856402   -0.918362 C.3        1 UNL1     -0.0567
     58 C         0.968779   -6.160532   1.909302 C.3        1 UNL1     0.0210
     59 C         5.593569   -4.072409   0.240259 C.3        1 UNL1     0.0372
     60 C         2.704763   -4.02558   0.934342 C.2        1 UNL1     -0.0208
     61 C         3.207705   -4.06631   2.1689 C.2        1 UNL1     0.0882
     62 H         0.691135   -0.980801   3.966626 H        1 UNL1     0.0365
     63 H         -0.557265   -1.746087   5.390025 H        1 UNL1     0.0576
     64 H         -2.599257   0.362272   6.329103 H        1 UNL1     0.0615
     65 H         -2.213378   -2.666493   6.989056 H        1 UNL1     0.0622
     66 H         3.464235   -4.508908   -0.939087 H        1 UNL1     0.0645
     67 H         2.258856   -3.265847   -2.164675 H        1 UNL1     0.0362
     68 H         3.916958   -1.859914   -2.464721 H        1 UNL1     0.0741
     69 H         4.091681   0.541493   -1.356073 H        1 UNL1     0.0359
     70 H         3.960434   0.885879   0.849304 H        1 UNL1     0.0600
     71 H         1.951882   1.703841   0.812299 H        1 UNL1     0.0348
     72 H         1.649748   0.181555   2.689373 H        1 UNL1     0.0602
     73 H         1.754614   -4.454917   0.734005 H        1 UNL1     0.0628
     74 H         4.146407   -3.598795   2.468078 H        1 UNL1     0.1022
     75 H         -5.470241   -0.474642   8.129738 H        1 UNL1     0.0279
     76 H         -6.319194   -1.945557   7.867084 H        1 UNL1     0.0279
     77 H         -5.447061   -1.608035   9.416522 H        1 UNL1     0.0279
     78 H         -5.733663   -3.625463   6.519249 H        1 UNL1     0.1553
     79 H         -5.163037   -2.350655   5.113734 H        1 UNL1     0.1484
     80 H         -3.922949   -2.446207   1.523115 H        1 UNL1     0.0317
     81 H         -4.371783   -3.894495   2.412461 H        1 UNL1     0.0317
     82 H         -6.322038   -2.716   3.461919 H        1 UNL1     0.0428
     83 H         -6.37623   -2.688301   1.713206 H        1 UNL1     0.0428
     84 H         -4.964083   0.837773   3.630439 H        1 UNL1     0.0428
     85 H         -5.454093   -0.456509   4.666706 H        1 UNL1     0.0428
     86 H         -3.006965   -0.206339   4.249771 H        1 UNL1     0.0317
     87 H         -3.168298   -0.440716   2.570071 H        1 UNL1     0.0317
     88 H         -7.827704   -0.786934   3.09039 H        1 UNL1     0.0429
     89 H         -7.143726   0.790194   2.689046 H        1 UNL1     0.0429
     90 H         -6.738078   -0.619982   0.319396 H        1 UNL1     0.0308
     91 H         -9.382363   -1.638682   1.513055 H        1 UNL1     0.0233
     92 H         -8.864897   -1.837704   -0.180496 H        1 UNL1     0.0233
     93 H         -7.995151   -2.642523   1.108073 H        1 UNL1     0.0233
     94 H         -8.810148   0.572581   -0.482519 H        1 UNL1     0.0233
     95 H         -9.056747   1.101257   1.189013 H        1 UNL1     0.0233
     96 H         -7.589785   1.590265   0.309874 H        1 UNL1     0.0233
     97 H         1.618393   -8.666025   5.194765 H        1 UNL1     0.0280
     98 H         0.861458   -9.04485   6.718158 H        1 UNL1     0.0280
     99 H         0.101915   -9.585325   5.191491 H        1 UNL1     0.0280
     100 H         -1.981086   -9.159347   6.549877 H        1 UNL1     0.2922
     101 H         2.059531   1.2385   4.149946 H        1 UNL1     0.0236
     102 H         1.806935   0.313673   5.681922 H        1 UNL1     0.0236
     103 H         0.900459   1.753681   5.335259 H        1 UNL1     0.0236
     104 H         0.902915   2.270079   3.051459 H        1 UNL1     0.2098
     105 H         0.70865   1.282381   -0.929571 H        1 UNL1     0.0234
     106 H         1.291012   -0.40433   -1.01297 H        1 UNL1     0.0234
     107 H         0.0   -0.0   0.0 H        1 UNL1     0.0234
     108 H         3.203431   -1.777894   1.347204 H        1 UNL1     0.2098
     109 H         0.866762   -2.265109   0.291832 H        1 UNL1     0.0234
     110 H         0.280648   -2.043605   -1.387516 H        1 UNL1     0.0234
     111 H         0.489266   -3.631513   -0.736464 H        1 UNL1     0.0234
     112 H         4.007915   1.881453   -4.290795 H        1 UNL1     0.0342
     113 H         4.737496   0.548358   -3.327048 H        1 UNL1     0.0342
     114 H         4.008502   0.217323   -4.900882 H        1 UNL1     0.0342
     115 H         5.90429   -0.791486   -1.935278 H        1 UNL1     0.0234
     116 H         6.144115   -0.273615   -0.263429 H        1 UNL1     0.0234
     117 H         5.651563   -1.924982   -0.692415 H        1 UNL1     0.0234
     118 H         1.777271   -6.671821   1.358002 H        1 UNL1     0.0309
     119 H         0.159753   -6.872646   2.100543 H        1 UNL1     0.0309
     120 H         0.576886   -5.445734   1.177463 H        1 UNL1     0.0309
     121 H         5.267636   -4.637792   1.112879 H        1 UNL1     0.0524
     122 H         5.709405   -4.785399   -0.592966 H        1 UNL1     0.0524
     123 H         6.552114   -3.600267   0.436133 H        1 UNL1     0.0524
@<TRIPOS>BOND
     1     1     2    1
     2     1    42    1
     3     2     3    2
     4     3     4    1
     5     4     5    2
     6     5     7    1
     7     6    75    1
     8     6    76    1
     9     6    77    1
    10     7     9   am
    11     9    10    1
    12    10    11    2
    13    10    43    1
    14    11    14    1
    15    11    15    1
    16    12    13   ar
    17    12    27   ar
    18    12    43    1
    19    13    14    1
    20    13    30   ar
    21    14    17    2
    22    15    16    1
    23    16    17    1
    24    16    18    1
    25    16    22    1
    26    18    19    1
    27    19    20    1
    28    20    21    1
    29    21    22    1
    30    23    24    1
    31    23    88    1
    32    23    89    1
    33    24    25    1
    34    24    26    1
    35    24    90    1
    36    25    91    1
    37    25    92    1
    38    25    93    1
    39    26    94    1
    40    26    95    1
    41    26    96    1
    42    27    28   ar
    43    28    29   ar
    44    29    30   ar
    45    29    31    1
    46    30    33    1
    47    31    32    1
    48    32    33    1
    49    32    35    1
    50    34    97    1
    51    34    98    1
    52    34    99    1
    53    35    61    1
    54    36    37    1
    55    36    60    1
    56    37    38    1
    57    38    39    1
    58    39    40    1
    59    40    41    1
    60    41    42    1
    61    45   100    1
    62    47   101    1
    63    47   102    1
    64    47   103    1
    65    48   104    1
    66    49   105    1
    67    49   106    1
    68    49   107    1
    69    50   108    1
    70    51    59    1
    71    52   109    1
    72    52   110    1
    73    52   111    1
    74    53    54    1
    75    54    55    2
    76    54    56    1
    77    56   112    1
    78    56   113    1
    79    56   114    1
    80    57   115    1
    81    57   116    1
    82    57   117    1
    83    58   118    1
    84    58   119    1
    85    58   120    1
    86    59   121    1
    87    59   122    1
    88    59   123    1
    89    60    61    2
    90     1    47    1
    91     1    62    1
    92     2    63    1
    93     3    64    1
    94     4    65    1
    95     5     6    1
    96     7     8    2
    97     9    78    1
    98    15    79    1
    99    18    80    1
   100    18    81    1
   101    19    82    1
   102    19    83    1
   103    20    23    1
   104    21    84    1
   105    21    85    1
   106    22    86    1
   107    22    87    1
   108    27    45    1
   109    28    34    1
   110    32    58    1
   111    33    46    2
   112    36    51    1
   113    36    66    1
   114    37    52    1
   115    37    67    1
   116    38    53    1
   117    38    68    1
   118    42    48    1
   119    42    72    1
   120    43    44    2
   121    60    73    1
   122    61    74    1
   123    39    69    1
   124    39    57    1
   125    40    70    1
   126    40    50    1
   127    41    71    1
   128    41    49    1
