@<TRIPOS>MOLECULE
*****
 123 128 0 0 0
SMALL
GASTEIGER

@<TRIPOS>ATOM
     1 C         -0.626123   0.714152   -4.01528 C.3        1 UNL1     0.0009
     2 C         -0.907223   2.345968   -4.849064 C.2        1 UNL1     -0.0787
     3 C         -1.809239   3.34924   -5.374287 C.2        1 UNL1     -0.0649
     4 C         -1.42043   4.876235   -5.993539 C.2        1 UNL1     -0.0542
     5 C         -1.918372   6.16756   -6.29621 C.2        1 UNL1     0.0115
     6 C         -3.211944   7.019582   -6.414756 C.3        1 UNL1     -0.0348
     7 C         -0.877834   7.371561   -6.507523 C.2        1 UNL1     0.2441
     8 O         -0.565993   7.795442   -7.61188 O.2        1 UNL1     -0.2702
     9 N         -0.548848   8.077879   -5.337465 N.am        1 UNL1     -0.2772
     10 C         0.517677   7.4844   -4.702148 C.2        1 UNL1     0.1049
     11 C         0.232691   6.456648   -3.923218 C.2        1 UNL1     0.0801
     12 C         2.81912   6.590638   -5.104499 C.ar        1 UNL1     0.0753
     13 C         2.391543   5.403782   -4.428363 C.ar        1 UNL1     0.0305
     14 C         1.125326   5.351565   -3.701025 C.2        1 UNL1     0.0924
     15 N         -0.955441   6.01446   -3.476745 N.pl3        1 UNL1     -0.3170
     16 C         -0.704185   4.967962   -2.521776 C.3        1 UNL1     0.1275
     17 N         0.620862   4.381523   -2.943753 N.2        1 UNL1     -0.2557
     18 C         -0.460866   5.636366   -1.17206 C.3        1 UNL1     0.0016
     19 C         -1.657439   6.514082   -0.841277 C.3        1 UNL1     0.0026
     20 N         -2.852313   5.682173   -0.806164 N.3        1 UNL1     -0.3018
     21 C         -3.13597   4.949033   -2.041644 C.3        1 UNL1     0.0026
     22 C         -1.922955   4.070472   -2.352483 C.3        1 UNL1     0.0016
     23 C         -3.990378   6.354617   -0.211798 C.3        1 UNL1     0.0012
     24 C         -4.882583   5.348258   0.53182 C.3        1 UNL1     -0.0339
     25 C         -6.054689   4.879877   -0.346156 C.3        1 UNL1     -0.0615
     26 C         -4.049362   4.177286   1.023092 C.3        1 UNL1     -0.0615
     27 C         4.079203   6.672136   -5.692433 C.ar        1 UNL1     0.1347
     28 C         5.010062   5.650238   -5.635181 C.ar        1 UNL1     0.0342
     29 C         4.549102   4.473813   -5.006928 C.ar        1 UNL1     0.1435
     30 C         3.276414   4.364919   -4.44512 C.ar        1 UNL1     0.0774
     31 O         5.373831   3.42935   -4.774707 O.3        1 UNL1     -0.4436
     32 C         4.718761   2.671687   -3.74626 C.3        1 UNL1     0.3143
     33 C         3.253728   3.044099   -3.85209 C.2        1 UNL1     0.2504
     34 C         6.459746   5.755579   -6.019136 C.3        1 UNL1     -0.0327
     35 O         4.824383   1.28809   -4.103688 O.2        1 UNL1     -0.4528
     36 C         4.889298   -0.630608   -0.82917 C.3        1 UNL1     0.0854
     37 C         3.833564   -0.637682   0.342537 C.3        1 UNL1     0.0236
     38 C         3.282356   -2.088348   0.746867 C.3        1 UNL1     0.1131
     39 C         2.727686   -3.057758   -0.373336 C.3        1 UNL1     0.0200
     40 C         1.730007   -2.475198   -1.576539 C.3        1 UNL1     0.0661
     41 C         0.346491   -1.521308   -1.345052 C.3        1 UNL1     0.0091
     42 C         -0.383972   -0.208901   -2.39834 C.3        1 UNL1     0.0661
     43 C         1.910622   7.763824   -5.081597 C.2        1 UNL1     0.2131
     44 O         2.28559   8.908986   -5.256931 O.2        1 UNL1     -0.2851
     45 O         4.399991   7.846377   -6.370438 O.3        1 UNL1     -0.5056
     46 O         2.28513   2.388971   -3.538273 O.2        1 UNL1     -0.2836
     47 C         -0.893552   -0.450765   -5.005953 C.3        1 UNL1     -0.0566
     48 O         -1.763816   -0.744309   -2.306221 O.3        1 UNL1     -0.3909
     49 C         0.345539   -0.999338   0.074469 C.3        1 UNL1     -0.0577
     50 O         2.489308   -1.971002   -2.656804 O.3        1 UNL1     -0.3910
     51 O         5.086726   -1.861243   -1.487951 O.3        1 UNL1     -0.3753
     52 C         2.90689   0.620996   0.298352 C.3        1 UNL1     -0.0564
     53 O         2.566551   -2.112679   2.065714 O.3        1 UNL1     -0.4608
     54 C         1.283263   -2.549726   2.265947 C.2        1 UNL1     0.3042
     55 O         0.731102   -3.513079   1.73594 O.2        1 UNL1     -0.2512
     56 C         0.532996   -1.758881   3.29957 C.3        1 UNL1     0.0332
     57 C         3.921145   -4.032614   -0.801691 C.3        1 UNL1     -0.0567
     58 C         5.270317   3.194323   -2.39935 C.3        1 UNL1     0.0210
     59 C         4.345291   -2.95501   -0.949609 C.3        1 UNL1     0.0372
     60 C         4.648213   0.388546   -1.886697 C.2        1 UNL1     -0.0208
     61 C         4.696948   0.283774   -3.215378 C.2        1 UNL1     0.0882
     62 H         0.453036   0.907374   -4.043415 H        1 UNL1     0.0365
     63 H         0.120822   2.643527   -5.065977 H        1 UNL1     0.0576
     64 H         -2.89201   3.261508   -5.26019 H        1 UNL1     0.0615
     65 H         -0.338227   4.82931   -6.142261 H        1 UNL1     0.0622
     66 H         5.835113   -0.346369   -0.346791 H        1 UNL1     0.0645
     67 H         4.423362   -0.370018   1.236436 H        1 UNL1     0.0362
     68 H         4.218702   -2.550411   1.095115 H        1 UNL1     0.0741
     69 H         2.115742   -3.816963   0.095216 H        1 UNL1     0.0359
     70 H         1.310403   -3.427325   -1.95396 H        1 UNL1     0.0600
     71 H         -0.42624   -2.31272   -1.285801 H        1 UNL1     0.0348
     72 H         0.274812   -0.794127   -3.056238 H        1 UNL1     0.0602
     73 H         4.533428   1.341763   -1.433431 H        1 UNL1     0.0628
     74 H         4.75402   -0.660558   -3.757797 H        1 UNL1     0.1022
     75 H         -2.979592   8.029074   -6.831857 H        1 UNL1     0.0279
     76 H         -3.973385   6.652816   -7.099416 H        1 UNL1     0.0279
     77 H         -3.639175   7.282513   -5.43596 H        1 UNL1     0.0279
     78 H         -1.337336   8.059957   -4.694004 H        1 UNL1     0.1553
     79 H         -1.788811   6.573274   -3.464301 H        1 UNL1     0.1484
     80 H         -0.310298   4.861073   -0.411128 H        1 UNL1     0.0317
     81 H         0.454489   6.237498   -1.19246 H        1 UNL1     0.0317
     82 H         -1.769654   7.337794   -1.561567 H        1 UNL1     0.0428
     83 H         -1.462252   6.982404   0.123931 H        1 UNL1     0.0428
     84 H         -3.991802   4.271413   -1.962942 H        1 UNL1     0.0428
     85 H         -3.40545   5.62465   -2.865197 H        1 UNL1     0.0428
     86 H         -2.216827   3.453965   -3.181668 H        1 UNL1     0.0317
     87 H         -1.766014   3.348058   -1.542185 H        1 UNL1     0.0317
     88 H         -3.613405   7.088959   0.51203 H        1 UNL1     0.0429
     89 H         -4.563235   6.910491   -0.965199 H        1 UNL1     0.0429
     90 H         -5.289069   5.825023   1.431641 H        1 UNL1     0.0308
     91 H         -6.670293   4.139859   0.173946 H        1 UNL1     0.0233
     92 H         -6.681057   5.726137   -0.637903 H        1 UNL1     0.0233
     93 H         -5.716965   4.413313   -1.279481 H        1 UNL1     0.0233
     94 H         -4.612854   3.243549   0.92088 H        1 UNL1     0.0233
     95 H         -3.138967   4.088971   0.42364 H        1 UNL1     0.0233
     96 H         -3.770009   4.299119   2.073372 H        1 UNL1     0.0233
     97 H         6.600636   6.343368   -6.921291 H        1 UNL1     0.0280
     98 H         7.058758   6.248797   -5.242491 H        1 UNL1     0.0280
     99 H         6.868828   4.747408   -6.196162 H        1 UNL1     0.0280
     100 H         3.662585   8.39377   -6.575906 H        1 UNL1     0.2922
     101 H         -0.073599   -1.167221   -4.960966 H        1 UNL1     0.0236
     102 H         -1.085691   -0.112453   -6.023602 H        1 UNL1     0.0236
     103 H         -1.788826   -1.032312   -4.729401 H        1 UNL1     0.0236
     104 H         -1.697123   -1.699716   -2.112005 H        1 UNL1     0.2098
     105 H         -0.320396   -1.532282   0.748496 H        1 UNL1     0.0234
     106 H         1.333763   -0.896806   0.522608 H        1 UNL1     0.0234
     107 H         0.0   0.0   0.0 H        1 UNL1     0.0234
     108 H         3.323807   -2.477475   -2.686198 H        1 UNL1     0.2098
     109 H         3.47962   1.558684   0.277534 H        1 UNL1     0.0234
     110 H         2.199165   0.605279   -0.537484 H        1 UNL1     0.0234
     111 H         2.266498   0.683543   1.188257 H        1 UNL1     0.0234
     112 H         1.034507   -0.801782   3.472183 H        1 UNL1     0.0342
     113 H         -0.509741   -1.609401   3.02353 H        1 UNL1     0.0342
     114 H         0.550201   -2.322944   4.242279 H        1 UNL1     0.0342
     115 H         3.637874   -5.090146   -0.709107 H        1 UNL1     0.0234
     116 H         4.277693   -3.876272   -1.82173 H        1 UNL1     0.0234
     117 H         4.792046   -3.985301   -0.125499 H        1 UNL1     0.0234
     118 H         4.558434   3.870318   -1.894118 H        1 UNL1     0.0309
     119 H         5.552817   2.391967   -1.710421 H        1 UNL1     0.0309
     120 H         6.163856   3.815785   -2.523766 H        1 UNL1     0.0309
     121 H         4.260541   -3.711432   -1.729353 H        1 UNL1     0.0524
     122 H         4.852859   -3.421114   -0.088703 H        1 UNL1     0.0524
     123 H         3.358167   -2.623723   -0.639886 H        1 UNL1     0.0524
@<TRIPOS>BOND
     1     1     2    1
     2     1    42    1
     3     2     3    2
     4     3     4    1
     5     4     5    2
     6     5     7    1
     7     6    75    1
     8     6    76    1
     9     6    77    1
    10     7     9   am
    11     9    10    1
    12    10    11    2
    13    10    43    1
    14    11    14    1
    15    11    15    1
    16    12    13   ar
    17    12    27   ar
    18    12    43    1
    19    13    14    1
    20    13    30   ar
    21    14    17    2
    22    15    16    1
    23    16    17    1
    24    16    18    1
    25    16    22    1
    26    18    19    1
    27    19    20    1
    28    20    21    1
    29    21    22    1
    30    23    24    1
    31    23    88    1
    32    23    89    1
    33    24    25    1
    34    24    26    1
    35    24    90    1
    36    25    91    1
    37    25    92    1
    38    25    93    1
    39    26    94    1
    40    26    95    1
    41    26    96    1
    42    27    28   ar
    43    28    29   ar
    44    29    30   ar
    45    29    31    1
    46    30    33    1
    47    31    32    1
    48    32    33    1
    49    32    35    1
    50    34    97    1
    51    34    98    1
    52    34    99    1
    53    35    61    1
    54    36    37    1
    55    36    60    1
    56    37    38    1
    57    38    39    1
    58    39    40    1
    59    40    41    1
    60    41    42    1
    61    45   100    1
    62    47   101    1
    63    47   102    1
    64    47   103    1
    65    48   104    1
    66    49   105    1
    67    49   106    1
    68    49   107    1
    69    50   108    1
    70    51    59    1
    71    52   109    1
    72    52   110    1
    73    52   111    1
    74    53    54    1
    75    54    55    2
    76    54    56    1
    77    56   112    1
    78    56   113    1
    79    56   114    1
    80    57   115    1
    81    57   116    1
    82    57   117    1
    83    58   118    1
    84    58   119    1
    85    58   120    1
    86    59   121    1
    87    59   122    1
    88    59   123    1
    89    60    61    2
    90     1    47    1
    91     1    62    1
    92     2    63    1
    93     3    64    1
    94     4    65    1
    95     5     6    1
    96     7     8    2
    97     9    78    1
    98    15    79    1
    99    18    80    1
   100    18    81    1
   101    19    82    1
   102    19    83    1
   103    20    23    1
   104    21    84    1
   105    21    85    1
   106    22    86    1
   107    22    87    1
   108    27    45    1
   109    28    34    1
   110    32    58    1
   111    33    46    2
   112    36    51    1
   113    36    66    1
   114    37    52    1
   115    37    67    1
   116    38    53    1
   117    38    68    1
   118    42    48    1
   119    42    72    1
   120    43    44    2
   121    60    73    1
   122    61    74    1
   123    39    69    1
   124    39    57    1
   125    40    70    1
   126    40    50    1
   127    41    71    1
   128    41    49    1
