@<TRIPOS>MOLECULE
*****
 123 128 0 0 0
SMALL
GASTEIGER

@<TRIPOS>ATOM
     1 C         -1.534859   4.254286   -1.813181 C.3        1 UNL1     0.0009
     2 C         -1.90204   4.876608   -3.520497 C.2        1 UNL1     -0.0787
     3 C         -1.611525   5.771875   -4.620564 C.2        1 UNL1     -0.0649
     4 C         -2.312733   5.788787   -6.161465 C.2        1 UNL1     -0.0542
     5 C         -2.157103   6.215916   -7.503262 C.2        1 UNL1     0.0115
     6 C         -1.303293   7.106172   -8.4476 C.3        1 UNL1     -0.0348
     7 C         -3.046241   5.524087   -8.646851 C.2        1 UNL1     0.2441
     8 O         -4.034799   6.055347   -9.13372 O.2        1 UNL1     -0.2702
     9 N         -2.467206   4.386423   -9.235571 N.am        1 UNL1     -0.2772
     10 C         -2.79749   3.256394   -8.523344 C.2        1 UNL1     0.1049
     11 C         -2.057453   3.001902   -7.459483 C.2        1 UNL1     0.0801
     12 C         -4.73867   2.047168   -7.50997 C.ar        1 UNL1     0.0753
     13 C         -3.968187   1.981173   -6.305557 C.ar        1 UNL1     0.0305
     14 C         -2.552071   2.340526   -6.282491 C.2        1 UNL1     0.0924
     15 N         -0.89463   3.548645   -7.065219 N.pl3        1 UNL1     -0.3170
     16 C         -0.418618   2.79972   -5.932621 C.3        1 UNL1     0.1275
     17 N         -1.668723   2.247161   -5.292589 N.2        1 UNL1     -0.2557
     18 C         0.346563   1.596552   -6.475381 C.3        1 UNL1     0.0016
     19 C         1.442498   2.095554   -7.403558 C.3        1 UNL1     0.0026
     20 N         2.322542   2.981648   -6.6543 N.3        1 UNL1     -0.3018
     21 C         1.665321   4.137601   -6.040948 C.3        1 UNL1     0.0026
     22 C         0.571384   3.613056   -5.109257 C.3        1 UNL1     0.0016
     23 C         3.558132   3.27279   -7.353726 C.3        1 UNL1     0.0012
     24 C         3.374896   4.47525   -8.293018 C.3        1 UNL1     -0.0339
     25 C         4.602387   5.40082   -8.267679 C.3        1 UNL1     -0.0615
     26 C         3.066237   3.994518   -9.700287 C.3        1 UNL1     -0.0615
     27 C         -6.053466   1.589247   -7.551671 C.ar        1 UNL1     0.1347
     28 C         -6.689607   1.010932   -6.467731 C.ar        1 UNL1     0.0342
     29 C         -5.928261   1.001189   -5.279699 C.ar        1 UNL1     0.1435
     30 C         -4.622672   1.489345   -5.213647 C.ar        1 UNL1     0.0774
     31 O         -6.366693   0.373273   -4.166817 O.3        1 UNL1     -0.4436
     32 C         -5.185546   0.167892   -3.377144 C.3        1 UNL1     0.3143
     33 C         -4.202121   1.217025   -3.855065 C.2        1 UNL1     0.2504
     34 C         -7.999225   0.273599   -6.504349 C.3        1 UNL1     -0.0327
     35 O         -5.51731   0.493726   -2.021778 O.2        1 UNL1     -0.4528
     36 C         -3.30228   -1.696584   0.147156 C.3        1 UNL1     0.0854
     37 C         -1.72908   -1.805326   0.174337 C.3        1 UNL1     0.0236
     38 C         -1.059673   -1.56413   1.611509 C.3        1 UNL1     0.1131
     39 C         -1.443081   -0.279092   2.450523 C.3        1 UNL1     0.0200
     40 C         -1.55652   1.210977   1.709398 C.3        1 UNL1     0.0661
     41 C         -0.394474   1.902295   0.685027 C.3        1 UNL1     0.0091
     42 C         -0.59222   3.025093   -0.752201 C.3        1 UNL1     0.0661
     43 C         -4.062164   2.537037   -8.736603 C.2        1 UNL1     0.2131
     44 O         -4.447461   2.28523   -9.863935 O.2        1 UNL1     -0.2851
     45 O         -6.748428   1.73164   -8.750916 O.3        1 UNL1     -0.5056
     46 O         -3.290601   1.72909   -3.244512 O.2        1 UNL1     -0.2836
     47 C         -2.03627   5.268423   -0.750122 C.3        1 UNL1     -0.0566
     48 O         0.462205   3.967505   -0.305922 O.3        1 UNL1     -0.3909
     49 C         0.594208   0.833007   0.276831 C.3        1 UNL1     -0.0577
     50 O         -2.850077   1.407645   1.174838 O.3        1 UNL1     -0.3910
     51 O         -3.908424   -1.234272   1.333027 O.3        1 UNL1     -0.3753
     52 C         -1.085571   -1.263717   -1.143807 C.3        1 UNL1     -0.0564
     53 O         0.370798   -2.011184   1.690388 O.3        1 UNL1     -0.4608
     54 C         1.366217   -1.373079   2.383131 C.2        1 UNL1     0.3042
     55 O         1.525167   -0.160145   2.514907 O.2        1 UNL1     -0.2512
     56 C         2.306901   -2.310821   3.084891 C.3        1 UNL1     0.0332
     57 C         -2.605024   -0.696069   3.467475 C.3        1 UNL1     -0.0567
     58 C         -4.645047   -1.231098   -3.754259 C.3        1 UNL1     0.0210
     59 C         -4.610681   -2.230379   2.074964 C.3        1 UNL1     0.0372
     60 C         -3.856939   -0.878454   -0.965578 C.2        1 UNL1     -0.0208
     61 C         -4.81467   0.049707   -0.961999 C.2        1 UNL1     0.0882
     62 H         -2.330291   3.509109   -1.934472 H        1 UNL1     0.0365
     63 H         -2.791097   4.291071   -3.763795 H        1 UNL1     0.0576
     64 H         -0.753253   6.447119   -4.597716 H        1 UNL1     0.0615
     65 H         -3.195371   5.15263   -6.053126 H        1 UNL1     0.0622
     66 H         -3.64692   -2.724464   -0.033763 H        1 UNL1     0.0645
     67 H         -1.531904   -2.880144   0.01798 H        1 UNL1     0.0362
     68 H         -1.494718   -2.412357   2.161754 H        1 UNL1     0.0741
     69 H         -0.681541   -0.113357   3.200855 H        1 UNL1     0.0359
     70 H         -1.52161   1.869301   2.598472 H        1 UNL1     0.0600
     71 H         0.19861   2.475364   1.424486 H        1 UNL1     0.0348
     72 H         -1.52634   3.10144   -0.176957 H        1 UNL1     0.0602
     73 H         -3.454457   -1.222087   -1.885998 H        1 UNL1     0.0628
     74 H         -5.23742   0.496092   -0.061299 H        1 UNL1     0.1022
     75 H         -1.674927   8.15916   -8.435813 H        1 UNL1     0.0279
     76 H         -0.254406   7.224989   -8.185324 H        1 UNL1     0.0279
     77 H         -1.42904   6.843749   -9.508271 H        1 UNL1     0.0279
     78 H         -1.453065   4.472312   -9.22082 H        1 UNL1     0.1553
     79 H         -0.282882   4.057588   -7.676507 H        1 UNL1     0.1484
     80 H         0.761918   1.028031   -5.63453 H        1 UNL1     0.0317
     81 H         -0.323302   0.916829   -7.012883 H        1 UNL1     0.0317
     82 H         1.028002   2.603494   -8.286791 H        1 UNL1     0.0428
     83 H         1.974388   1.221512   -7.780646 H        1 UNL1     0.0428
     84 H         2.332366   4.742388   -5.418776 H        1 UNL1     0.0428
     85 H         1.291571   4.843372   -6.795611 H        1 UNL1     0.0428
     86 H         0.20412   4.47321   -4.580824 H        1 UNL1     0.0317
     87 H         1.016702   2.999336   -4.316707 H        1 UNL1     0.0317
     88 H         4.321898   3.52595   -6.606822 H        1 UNL1     0.0429
     89 H         3.92276   2.39433   -7.901564 H        1 UNL1     0.0429
     90 H         2.497497   5.050058   -7.973674 H        1 UNL1     0.0308
     91 H         5.475604   4.915682   -8.714038 H        1 UNL1     0.0233
     92 H         4.396124   6.330723   -8.802791 H        1 UNL1     0.0233
     93 H         4.885796   5.690819   -7.248652 H        1 UNL1     0.0233
     94 H         3.923595   3.449456   -10.109773 H        1 UNL1     0.0233
     95 H         2.210722   3.313513   -9.68326 H        1 UNL1     0.0233
     96 H         2.838275   4.831086   -10.366738 H        1 UNL1     0.0233
     97 H         -8.837903   0.941099   -6.678398 H        1 UNL1     0.0280
     98 H         -8.033556   -0.469077   -7.312131 H        1 UNL1     0.0280
     99 H         -8.160414   -0.240321   -5.54258 H        1 UNL1     0.0280
     100 H         -6.644956   1.014107   -9.350969 H        1 UNL1     0.2922
     101 H         -2.142597   4.76929   0.2128 H        1 UNL1     0.0236
     102 H         -2.949131   5.783978   -1.046555 H        1 UNL1     0.0236
     103 H         -1.304997   6.073724   -0.568676 H        1 UNL1     0.0236
     104 H         0.361192   4.789957   -0.823937 H        1 UNL1     0.2098
     105 H         1.214791   1.097057   -0.575792 H        1 UNL1     0.0234
     106 H         1.211576   0.449654   1.089127 H        1 UNL1     0.0234
     107 H         0.0   -0.0   0.0 H        1 UNL1     0.0234
     108 H         -3.447952   0.778986   1.623282 H        1 UNL1     0.2098
     109 H         -1.415994   -1.824782   -2.029097 H        1 UNL1     0.0234
     110 H         -1.261915   -0.194165   -1.300983 H        1 UNL1     0.0234
     111 H         0.008784   -1.353353   -1.12648 H        1 UNL1     0.0234
     112 H         2.561498   -3.14558   2.424812 H        1 UNL1     0.0342
     113 H         3.203854   -1.803579   3.437061 H        1 UNL1     0.0342
     114 H         1.790162   -2.721505   3.963232 H        1 UNL1     0.0342
     115 H         -2.783418   0.080222   4.224268 H        1 UNL1     0.0234
     116 H         -3.560921   -0.910637   2.98553 H        1 UNL1     0.0234
     117 H         -2.343583   -1.558551   4.104433 H        1 UNL1     0.0234
     118 H         -5.458811   -1.954944   -3.935483 H        1 UNL1     0.0309
     119 H         -3.980061   -1.214758   -4.623585 H        1 UNL1     0.0309
     120 H         -4.072104   -1.693127   -2.942857 H        1 UNL1     0.0309
     121 H         -5.638286   -1.888489   2.195369 H        1 UNL1     0.0524
     122 H         -4.64258   -3.199014   1.548878 H        1 UNL1     0.0524
     123 H         -4.146496   -2.372115   3.046837 H        1 UNL1     0.0524
@<TRIPOS>BOND
     1     1     2    1
     2     1    42    1
     3     2     3    2
     4     3     4    1
     5     4     5    2
     6     5     7    1
     7     6    75    1
     8     6    76    1
     9     6    77    1
    10     7     9   am
    11     9    10    1
    12    10    11    2
    13    10    43    1
    14    11    14    1
    15    11    15    1
    16    12    13   ar
    17    12    27   ar
    18    12    43    1
    19    13    14    1
    20    13    30   ar
    21    14    17    2
    22    15    16    1
    23    16    17    1
    24    16    18    1
    25    16    22    1
    26    18    19    1
    27    19    20    1
    28    20    21    1
    29    21    22    1
    30    23    24    1
    31    23    88    1
    32    23    89    1
    33    24    25    1
    34    24    26    1
    35    24    90    1
    36    25    91    1
    37    25    92    1
    38    25    93    1
    39    26    94    1
    40    26    95    1
    41    26    96    1
    42    27    28   ar
    43    28    29   ar
    44    29    30   ar
    45    29    31    1
    46    30    33    1
    47    31    32    1
    48    32    33    1
    49    32    35    1
    50    34    97    1
    51    34    98    1
    52    34    99    1
    53    35    61    1
    54    36    37    1
    55    36    60    1
    56    37    38    1
    57    38    39    1
    58    39    40    1
    59    40    41    1
    60    41    42    1
    61    45   100    1
    62    47   101    1
    63    47   102    1
    64    47   103    1
    65    48   104    1
    66    49   105    1
    67    49   106    1
    68    49   107    1
    69    50   108    1
    70    51    59    1
    71    52   109    1
    72    52   110    1
    73    52   111    1
    74    53    54    1
    75    54    55    2
    76    54    56    1
    77    56   112    1
    78    56   113    1
    79    56   114    1
    80    57   115    1
    81    57   116    1
    82    57   117    1
    83    58   118    1
    84    58   119    1
    85    58   120    1
    86    59   121    1
    87    59   122    1
    88    59   123    1
    89    60    61    2
    90     1    47    1
    91     1    62    1
    92     2    63    1
    93     3    64    1
    94     4    65    1
    95     5     6    1
    96     7     8    2
    97     9    78    1
    98    15    79    1
    99    18    80    1
   100    18    81    1
   101    19    82    1
   102    19    83    1
   103    20    23    1
   104    21    84    1
   105    21    85    1
   106    22    86    1
   107    22    87    1
   108    27    45    1
   109    28    34    1
   110    32    58    1
   111    33    46    2
   112    36    51    1
   113    36    66    1
   114    37    52    1
   115    37    67    1
   116    38    53    1
   117    38    68    1
   118    42    48    1
   119    42    72    1
   120    43    44    2
   121    60    73    1
   122    61    74    1
   123    39    69    1
   124    39    57    1
   125    40    70    1
   126    40    50    1
   127    41    71    1
   128    41    49    1
