@<TRIPOS>MOLECULE
*****
 123 128 0 0 0
SMALL
GASTEIGER

@<TRIPOS>ATOM
     1 C         5.167136   1.749119   0.490427 C.3        1 UNL1     0.0009
     2 C         6.603476   2.555745   -0.360054 C.2        1 UNL1     -0.0787
     3 C         7.885148   2.457978   -1.026242 C.2        1 UNL1     -0.0649
     4 C         8.762241   3.693525   -1.781548 C.2        1 UNL1     -0.0542
     5 C         9.781937   3.986691   -2.720351 C.2        1 UNL1     0.0115
     6 C         10.90991   3.361743   -3.58663 C.3        1 UNL1     -0.0348
     7 C         9.876947   5.470233   -3.32621 C.2        1 UNL1     0.2441
     8 O         10.700879   6.291781   -2.948428 O.2        1 UNL1     -0.2702
     9 N         9.126327   5.677667   -4.496549 N.am        1 UNL1     -0.2772
     10 C         7.84368   6.064091   -4.182202 C.2        1 UNL1     0.1049
     11 C         6.998075   5.092469   -3.890438 C.2        1 UNL1     0.0801
     12 C         6.545602   7.669982   -2.770309 C.ar        1 UNL1     0.0753
     13 C         5.786789   6.541795   -2.323089 C.ar        1 UNL1     0.0305
     14 C         5.903628   5.236399   -2.96911 C.2        1 UNL1     0.0924
     15 N         7.120762   3.763575   -4.050173 N.pl3        1 UNL1     -0.3170
     16 C         5.851058   3.164148   -3.735859 C.3        1 UNL1     0.1275
     17 N         5.21489   4.118879   -2.755296 N.2        1 UNL1     -0.2557
     18 C         4.997795   3.223719   -4.999226 C.3        1 UNL1     0.0016
     19 C         5.752371   2.540209   -6.128393 C.3        1 UNL1     0.0026
     20 N         6.02276   1.161956   -5.74325 N.3        1 UNL1     -0.3018
     21 C         6.786533   1.001064   -4.504245 C.3        1 UNL1     0.0026
     22 C         6.00809   1.691004   -3.382682 C.3        1 UNL1     0.0016
     23 C         6.46698   0.342964   -6.85346 C.3        1 UNL1     0.0012
     24 C         5.311238   0.093833   -7.83527 C.3        1 UNL1     -0.0339
     25 C         5.346477   1.086519   -9.008893 C.3        1 UNL1     -0.0615
     26 C         5.340311   -1.345442   -8.319443 C.3        1 UNL1     -0.0615
     27 C         6.341004   8.937412   -2.23005 C.ar        1 UNL1     0.1347
     28 C         5.382234   9.206438   -1.269616 C.ar        1 UNL1     0.0342
     29 C         4.680922   8.071716   -0.809471 C.ar        1 UNL1     0.1435
     30 C         4.900315   6.789938   -1.315566 C.ar        1 UNL1     0.0774
     31 O         3.640199   8.184802   0.044411 O.3        1 UNL1     -0.4436
     32 C         2.918585   6.951983   -0.098073 C.3        1 UNL1     0.3143
     33 C         3.931796   5.959209   -0.631004 C.2        1 UNL1     0.2504
     34 C         4.935418   10.572302   -0.828175 C.3        1 UNL1     -0.0327
     35 O         2.558419   6.514656   1.218088 O.2        1 UNL1     -0.4528
     36 C         -0.684586   4.582361   0.821551 C.3        1 UNL1     0.0854
     37 C         -0.990076   3.322154   -0.076266 C.3        1 UNL1     0.0236
     38 C         -1.590259   2.060703   0.711303 C.3        1 UNL1     0.1131
     39 C         -0.864023   1.529248   2.012228 C.3        1 UNL1     0.0200
     40 C         0.797195   1.383832   2.05278 C.3        1 UNL1     0.0661
     41 C         1.756244   0.615611   0.883305 C.3        1 UNL1     0.0091
     42 C         3.463612   0.978571   0.318896 C.3        1 UNL1     0.0661
     43 C         7.49529   7.462865   -3.891673 C.2        1 UNL1     0.2131
     44 O         7.894855   8.3613   -4.609935 O.2        1 UNL1     -0.2851
     45 O         7.153027   9.972795   -2.688348 O.3        1 UNL1     -0.5056
     46 O         3.947934   4.755618   -0.500768 O.2        1 UNL1     -0.2836
     47 C         5.564016   1.319037   1.928306 C.3        1 UNL1     -0.0566
     48 O         3.912327   -0.432531   0.399905 O.3        1 UNL1     -0.3909
     49 C         0.921663   0.383498   -0.35649 C.3        1 UNL1     -0.0577
     50 O         1.397418   2.601573   2.445925 O.3        1 UNL1     -0.3910
     51 O         -0.808192   4.392059   2.212931 O.3        1 UNL1     -0.3753
     52 C         0.054007   3.162285   -1.229211 C.3        1 UNL1     -0.0564
     53 O         -2.193073   1.022065   -0.188793 O.3        1 UNL1     -0.4608
     54 C         -2.427256   -0.284858   0.150386 C.2        1 UNL1     0.3042
     55 O         -1.858218   -1.283745   -0.288087 O.2        1 UNL1     -0.2512
     56 C         -3.4669   -0.451065   1.22194 C.3        1 UNL1     0.0332
     57 C         -1.584686   2.197623   3.274011 C.3        1 UNL1     -0.0567
     58 C         1.843004   7.197458   -1.181769 C.3        1 UNL1     0.0210
     59 C         -1.121242   5.570711   2.953637 C.3        1 UNL1     0.0372
     60 C         0.644278   5.211661   0.590765 C.2        1 UNL1     -0.0208
     61 C         1.557469   5.646591   1.460054 C.2        1 UNL1     0.0882
     62 H         4.691161   2.733213   0.578287 H        1 UNL1     0.0365
     63 H         6.337174   3.609476   -0.254198 H        1 UNL1     0.0576
     64 H         8.34281   1.491264   -1.247868 H        1 UNL1     0.0615
     65 H         8.275197   4.608728   -1.434164 H        1 UNL1     0.0622
     66 H         -1.429405   5.328961   0.511908 H        1 UNL1     0.0645
     67 H         -1.855858   3.631713   -0.68713 H        1 UNL1     0.0362
     68 H         -2.537248   2.497344   1.063552 H        1 UNL1     0.0741
     69 H         -1.195394   0.518037   2.207301 H        1 UNL1     0.0359
     70 H         0.909327   0.723126   2.933663 H        1 UNL1     0.0600
     71 H         1.800059   -0.405737   1.309786 H        1 UNL1     0.0348
     72 H         3.358023   1.466341   1.298818 H        1 UNL1     0.0602
     73 H         0.761804   5.409372   -0.445742 H        1 UNL1     0.0628
     74 H         1.540306   5.43546   2.529805 H        1 UNL1     0.1022
     75 H         10.954537   2.256401   -3.434109 H        1 UNL1     0.0279
     76 H         10.795902   3.444991   -4.665121 H        1 UNL1     0.0279
     77 H         11.915071   3.66639   -3.260221 H        1 UNL1     0.0279
     78 H         9.064221   4.807941   -5.021713 H        1 UNL1     0.1553
     79 H         7.785857   3.335908   -4.667978 H        1 UNL1     0.1484
     80 H         4.036621   2.73262   -4.804975 H        1 UNL1     0.0317
     81 H         4.771006   4.260571   -5.269702 H        1 UNL1     0.0317
     82 H         6.682904   3.071697   -6.376468 H        1 UNL1     0.0428
     83 H         5.126908   2.595686   -7.019891 H        1 UNL1     0.0428
     84 H         6.907047   -0.042011   -4.195569 H        1 UNL1     0.0428
     85 H         7.816559   1.369229   -4.608257 H        1 UNL1     0.0428
     86 H         6.524845   1.440291   -2.474885 H        1 UNL1     0.0317
     87 H         5.028728   1.213231   -3.257463 H        1 UNL1     0.0317
     88 H         7.262817   0.885055   -7.380788 H        1 UNL1     0.0429
     89 H         6.899775   -0.602924   -6.50309 H        1 UNL1     0.0429
     90 H         4.358377   0.212599   -7.305966 H        1 UNL1     0.0308
     91 H         6.299468   1.036053   -9.544023 H        1 UNL1     0.0233
     92 H         4.531363   0.886777   -9.708393 H        1 UNL1     0.0233
     93 H         5.220372   2.125477   -8.681021 H        1 UNL1     0.0233
     94 H         4.645546   -1.476607   -9.156064 H        1 UNL1     0.0233
     95 H         6.343718   -1.601107   -8.671254 H        1 UNL1     0.0233
     96 H         5.057712   -2.040029   -7.523419 H        1 UNL1     0.0233
     97 H         4.136042   10.522275   -0.094877 H        1 UNL1     0.0280
     98 H         5.745863   11.138726   -0.351102 H        1 UNL1     0.0280
     99 H         4.570201   11.140556   -1.699266 H        1 UNL1     0.0280
     100 H         6.685835   10.724028   -3.00929 H        1 UNL1     0.2922
     101 H         4.701413   0.885108   2.433557 H        1 UNL1     0.0236
     102 H         6.014927   2.124173   2.50746 H        1 UNL1     0.0236
     103 H         6.320334   0.516433   1.926603 H        1 UNL1     0.0236
     104 H         4.331856   -0.558949   1.273394 H        1 UNL1     0.2098
     105 H         0.708663   1.282569   -0.929302 H        1 UNL1     0.0234
     106 H         1.290946   -0.404148   -1.013126 H        1 UNL1     0.0234
     107 H         0.0   -0.0   0.0 H        1 UNL1     0.0234
     108 H         1.199172   3.259919   1.75235 H        1 UNL1     0.2098
     109 H         1.078983   3.048736   -0.849418 H        1 UNL1     0.0234
     110 H         -0.178598   2.335454   -1.908909 H        1 UNL1     0.0234
     111 H         0.074897   4.045378   -1.881634 H        1 UNL1     0.0234
     112 H         -3.599093   -1.512918   1.450716 H        1 UNL1     0.0342
     113 H         -3.223519   0.114739   2.119979 H        1 UNL1     0.0342
     114 H         -4.421711   -0.06832   0.835925 H        1 UNL1     0.0342
     115 H         -2.654275   1.949237   3.312379 H        1 UNL1     0.0234
     116 H         -1.147872   1.917493   4.23462 H        1 UNL1     0.0234
     117 H         -1.623398   3.299496   3.225864 H        1 UNL1     0.0234
     118 H         0.941407   7.682701   -0.768648 H        1 UNL1     0.0309
     119 H         2.211602   7.787132   -2.027123 H        1 UNL1     0.0309
     120 H         1.455474   6.265682   -1.608055 H        1 UNL1     0.0309
     121 H         -0.300303   6.274008   2.816565 H        1 UNL1     0.0524
     122 H         -2.041206   6.059826   2.592429 H        1 UNL1     0.0524
     123 H         -1.238829   5.332513   4.006979 H        1 UNL1     0.0524
@<TRIPOS>BOND
     1     1     2    1
     2     1    42    1
     3     2     3    2
     4     3     4    1
     5     4     5    2
     6     5     7    1
     7     6    75    1
     8     6    76    1
     9     6    77    1
    10     7     9   am
    11     9    10    1
    12    10    11    2
    13    10    43    1
    14    11    14    1
    15    11    15    1
    16    12    13   ar
    17    12    27   ar
    18    12    43    1
    19    13    14    1
    20    13    30   ar
    21    14    17    2
    22    15    16    1
    23    16    17    1
    24    16    18    1
    25    16    22    1
    26    18    19    1
    27    19    20    1
    28    20    21    1
    29    21    22    1
    30    23    24    1
    31    23    88    1
    32    23    89    1
    33    24    25    1
    34    24    26    1
    35    24    90    1
    36    25    91    1
    37    25    92    1
    38    25    93    1
    39    26    94    1
    40    26    95    1
    41    26    96    1
    42    27    28   ar
    43    28    29   ar
    44    29    30   ar
    45    29    31    1
    46    30    33    1
    47    31    32    1
    48    32    33    1
    49    32    35    1
    50    34    97    1
    51    34    98    1
    52    34    99    1
    53    35    61    1
    54    36    37    1
    55    36    60    1
    56    37    38    1
    57    38    39    1
    58    39    40    1
    59    40    41    1
    60    41    42    1
    61    45   100    1
    62    47   101    1
    63    47   102    1
    64    47   103    1
    65    48   104    1
    66    49   105    1
    67    49   106    1
    68    49   107    1
    69    50   108    1
    70    51    59    1
    71    52   109    1
    72    52   110    1
    73    52   111    1
    74    53    54    1
    75    54    55    2
    76    54    56    1
    77    56   112    1
    78    56   113    1
    79    56   114    1
    80    57   115    1
    81    57   116    1
    82    57   117    1
    83    58   118    1
    84    58   119    1
    85    58   120    1
    86    59   121    1
    87    59   122    1
    88    59   123    1
    89    60    61    2
    90     1    47    1
    91     1    62    1
    92     2    63    1
    93     3    64    1
    94     4    65    1
    95     5     6    1
    96     7     8    2
    97     9    78    1
    98    15    79    1
    99    18    80    1
   100    18    81    1
   101    19    82    1
   102    19    83    1
   103    20    23    1
   104    21    84    1
   105    21    85    1
   106    22    86    1
   107    22    87    1
   108    27    45    1
   109    28    34    1
   110    32    58    1
   111    33    46    2
   112    36    51    1
   113    36    66    1
   114    37    52    1
   115    37    67    1
   116    38    53    1
   117    38    68    1
   118    42    48    1
   119    42    72    1
   120    43    44    2
   121    60    73    1
   122    61    74    1
   123    39    69    1
   124    39    57    1
   125    40    70    1
   126    40    50    1
   127    41    71    1
   128    41    49    1
