@<TRIPOS>MOLECULE
*****
 123 128 0 0 0
SMALL
GASTEIGER

@<TRIPOS>ATOM
     1 C         3.325305   -1.929074   -3.902895 C.3        1 UNL1     0.0009
     2 C         3.725789   -1.933462   -5.713041 C.2        1 UNL1     -0.0787
     3 C         3.681384   -2.579873   -7.007733 C.2        1 UNL1     -0.0649
     4 C         4.181358   -1.955871   -8.500048 C.2        1 UNL1     -0.0542
     5 C         4.063131   -2.075234   -9.906765 C.2        1 UNL1     0.0115
     6 C         3.51255   -2.97148   -11.049973 C.3        1 UNL1     -0.0348
     7 C         4.512305   -0.84232   -10.831511 C.2        1 UNL1     0.2441
     8 O         5.573808   -0.818362   -11.439099 O.2        1 UNL1     -0.2702
     9 N         3.495947   0.089449   -11.105329 N.am        1 UNL1     -0.2772
     10 C         3.451069   1.053262   -10.124324 C.2        1 UNL1     0.1049
     11 C         2.779351   0.740247   -9.031146 C.2        1 UNL1     0.0801
     12 C         4.893243   2.636169   -8.831314 C.ar        1 UNL1     0.0753
     13 C         4.277575   2.109784   -7.65128 C.ar        1 UNL1     0.0305
     14 C         3.106812   1.238429   -7.722727 C.2        1 UNL1     0.0924
     15 N         1.949023   -0.2894   -8.792583 N.pl3        1 UNL1     -0.3170
     16 C         1.343776   -0.07651   -7.504713 C.3        1 UNL1     0.1275
     17 N         2.355449   0.744312   -6.742814 N.2        1 UNL1     -0.2557
     18 C         0.135837   0.830916   -7.71723 C.3        1 UNL1     0.0016
     19 C         -0.782185   0.186208   -8.743474 C.3        1 UNL1     0.0026
     20 N         -1.189923   -1.121921   -8.24994 N.3        1 UNL1     -0.3018
     21 C         -0.092155   -2.045765   -7.957045 C.3        1 UNL1     0.0026
     22 C         0.814867   -1.379903   -6.920785 C.3        1 UNL1     0.0016
     23 C         -2.291408   -1.689956   -9.001413 C.3        1 UNL1     0.0012
     24 C         -2.940681   -0.622081   -9.895754 C.3        1 UNL1     -0.0339
     25 C         -1.918235   0.436849   -10.33997 C.3        1 UNL1     -0.0615
     26 C         -3.616618   -1.280368   -11.085942 C.3        1 UNL1     -0.0615
     27 C         5.931968   3.560795   -8.752345 C.ar        1 UNL1     0.1347
     28 C         6.411677   4.061754   -7.555278 C.ar        1 UNL1     0.0342
     29 C         5.823745   3.492679   -6.405646 C.ar        1 UNL1     0.1435
     30 C         4.807194   2.538824   -6.468933 C.ar        1 UNL1     0.0774
     31 O         6.105427   3.954744   -5.167843 O.3        1 UNL1     -0.4436
     32 C         5.017632   3.493666   -4.35238 C.3        1 UNL1     0.3143
     33 C         4.453004   2.29422   -5.086369 C.2        1 UNL1     0.2504
     34 C         7.342139   5.232183   -7.398952 C.3        1 UNL1     -0.0327
     35 O         5.579983   3.006591   -3.127728 O.2        1 UNL1     -0.4528
     36 C         2.936676   3.585956   -0.465895 C.3        1 UNL1     0.0854
     37 C         1.44715   3.070268   -0.412055 C.3        1 UNL1     0.0236
     38 C         1.062256   2.253324   0.913164 C.3        1 UNL1     0.1131
     39 C         1.977855   1.054922   1.390427 C.3        1 UNL1     0.0200
     40 C         2.563325   -0.051893   0.288327 C.3        1 UNL1     0.0661
     41 C         1.646295   -0.870435   -0.880713 C.3        1 UNL1     0.0091
     42 C         2.103576   -1.450792   -2.559844 C.3        1 UNL1     0.0661
     43 C         4.329162   2.232646   -10.143275 C.2        1 UNL1     0.2131
     44 O         4.478771   2.875407   -11.166609 O.2        1 UNL1     -0.2851
     45 O         6.506892   3.988761   -9.947228 O.3        1 UNL1     -0.5056
     46 O         3.863206   1.340511   -4.629825 O.2        1 UNL1     -0.2836
     47 C         4.271279   -2.894227   -3.138961 C.3        1 UNL1     -0.0566
     48 O         1.525717   -2.803754   -2.373597 O.3        1 UNL1     -0.3909
     49 C         0.29533   -0.200646   -0.998069 C.3        1 UNL1     -0.0577
     50 O         3.777009   0.399177   -0.278446 O.3        1 UNL1     -0.3910
     51 O         3.786148   3.123539   0.559775 O.3        1 UNL1     -0.3753
     52 C         0.923665   2.655256   -1.825801 C.3        1 UNL1     -0.0564
     53 O         -0.416324   2.081752   1.104711 O.3        1 UNL1     -0.4608
     54 C         -1.390925   2.725228   0.387759 C.2        1 UNL1     0.3042
     55 O         -2.425654   2.24036   -0.068396 O.2        1 UNL1     -0.2512
     56 C         -1.140602   4.196785   0.218726 C.3        1 UNL1     0.0332
     57 C         2.996156   1.630705   2.481166 C.3        1 UNL1     -0.0567
     58 C         3.960641   4.622513   -4.354055 C.3        1 UNL1     0.0210
     59 C         5.089521   2.734536   0.128777 C.3        1 UNL1     0.0372
     60 C         3.642234   3.336935   -1.752495 C.2        1 UNL1     -0.0208
     61 C         4.871831   2.877869   -1.989335 C.2        1 UNL1     0.0882
     62 H         3.769924   -0.929478   -3.826511 H        1 UNL1     0.0365
     63 H         4.304074   -1.010857   -5.795848 H        1 UNL1     0.0576
     64 H         3.142948   -3.517785   -7.161086 H        1 UNL1     0.0615
     65 H         4.769887   -1.074817   -8.230121 H        1 UNL1     0.0622
     66 H         2.854149   4.678103   -0.373971 H        1 UNL1     0.0645
     67 H         0.849607   3.989625   -0.284447 H        1 UNL1     0.0362
     68 H         1.202807   3.045135   1.664697 H        1 UNL1     0.0741
     69 H         1.41148   0.43418   2.071828 H        1 UNL1     0.0359
     70 H         2.864632   -0.86491   0.976279 H        1 UNL1     0.0600
     71 H         1.38589   -1.786693   -0.315367 H        1 UNL1     0.0348
     72 H         3.051271   -1.29668   -2.02371 H        1 UNL1     0.0602
     73 H         3.051298   3.708491   -2.552488 H        1 UNL1     0.0628
     74 H         5.517749   2.427268   -1.235023 H        1 UNL1     0.1022
     75 H         2.937831   -3.832386   -10.630959 H        1 UNL1     0.0279
     76 H         2.790432   -2.512337   -11.721391 H        1 UNL1     0.0279
     77 H         4.308228   -3.490989   -11.603785 H        1 UNL1     0.0279
     78 H         2.593524   -0.381337   -11.113744 H        1 UNL1     0.1553
     79 H         1.513059   -0.832301   -9.515166 H        1 UNL1     0.1484
     80 H         -0.375337   0.976248   -6.757884 H        1 UNL1     0.0317
     81 H         0.447508   1.823453   -8.059842 H        1 UNL1     0.0317
     82 H         -0.298569   0.104683   -9.728045 H        1 UNL1     0.0428
     83 H         -1.635854   0.850528   -8.881236 H        1 UNL1     0.0428
     84 H         -0.420683   -2.990703   -7.513228 H        1 UNL1     0.0428
     85 H         0.440287   -2.350078   -8.868755 H        1 UNL1     0.0428
     86 H         1.526516   -2.131505   -6.633317 H        1 UNL1     0.0317
     87 H         0.254411   -1.194268   -5.99638 H        1 UNL1     0.0317
     88 H         -1.89249   -2.4871   -9.642288 H        1 UNL1     0.0429
     89 H         -3.031615   -2.1525   -8.335892 H        1 UNL1     0.0429
     90 H         -3.740102   -0.12236   -9.335916 H        1 UNL1     0.0308
     91 H         -1.93988   1.311077   -9.682429 H        1 UNL1     0.0233
     92 H         -0.908652   0.019382   -10.348455 H        1 UNL1     0.0233
     93 H         -2.107787   0.799382   -11.357553 H        1 UNL1     0.0233
     94 H         -2.889411   -1.449322   -11.887479 H        1 UNL1     0.0233
     95 H         -4.026942   -2.25081   -10.792962 H        1 UNL1     0.0233
     96 H         -4.426121   -0.659001   -11.479105 H        1 UNL1     0.0233
     97 H         8.267317   4.953827   -6.903177 H        1 UNL1     0.0280
     98 H         7.636391   5.659057   -8.366656 H        1 UNL1     0.0280
     99 H         6.851294   6.016361   -6.799593 H        1 UNL1     0.0280
     100 H         6.744364   4.899238   -9.96342 H        1 UNL1     0.2922
     101 H         4.127925   -2.776134   -2.065108 H        1 UNL1     0.0236
     102 H         5.316657   -2.786526   -3.42631 H        1 UNL1     0.0236
     103 H         4.032566   -3.952242   -3.33849 H        1 UNL1     0.0236
     104 H         0.776488   -2.892541   -2.994679 H        1 UNL1     0.2098
     105 H         0.307282   0.743052   -1.537609 H        1 UNL1     0.0234
     106 H         -0.499766   -0.842521   -1.377205 H        1 UNL1     0.0234
     107 H         -0.0   0.0   0.0 H        1 UNL1     0.0234
     108 H         4.482906   -0.199365   0.033361 H        1 UNL1     0.2098
     109 H         0.467282   3.497626   -2.364169 H        1 UNL1     0.0234
     110 H         1.695148   2.194792   -2.452323 H        1 UNL1     0.0234
     111 H         0.14189   1.886989   -1.758429 H        1 UNL1     0.0234
     112 H         -1.957815   4.650353   -0.350296 H        1 UNL1     0.0342
     113 H         -1.002657   4.701123   1.173953 H        1 UNL1     0.0342
     114 H         -0.215876   4.323141   -0.360998 H        1 UNL1     0.0342
     115 H         2.603528   1.525805   3.501963 H        1 UNL1     0.0234
     116 H         3.98216   1.16236   2.458859 H        1 UNL1     0.0234
     117 H         3.136698   2.723508   2.418161 H        1 UNL1     0.0234
     118 H         3.318011   4.590096   -3.456846 H        1 UNL1     0.0309
     119 H         4.39902   5.621418   -4.444702 H        1 UNL1     0.0309
     120 H         3.246682   4.528636   -5.179619 H        1 UNL1     0.0309
     121 H         5.755312   2.803333   0.98863 H        1 UNL1     0.0524
     122 H         5.117698   1.692289   -0.230339 H        1 UNL1     0.0524
     123 H         5.434112   3.390588   -0.665544 H        1 UNL1     0.0524
@<TRIPOS>BOND
     1     1     2    1
     2     1    42    1
     3     2     3    2
     4     3     4    1
     5     4     5    2
     6     5     7    1
     7     6    75    1
     8     6    76    1
     9     6    77    1
    10     7     9   am
    11     9    10    1
    12    10    11    2
    13    10    43    1
    14    11    14    1
    15    11    15    1
    16    12    13   ar
    17    12    27   ar
    18    12    43    1
    19    13    14    1
    20    13    30   ar
    21    14    17    2
    22    15    16    1
    23    16    17    1
    24    16    18    1
    25    16    22    1
    26    18    19    1
    27    19    20    1
    28    20    21    1
    29    21    22    1
    30    23    24    1
    31    23    88    1
    32    23    89    1
    33    24    25    1
    34    24    26    1
    35    24    90    1
    36    25    91    1
    37    25    92    1
    38    25    93    1
    39    26    94    1
    40    26    95    1
    41    26    96    1
    42    27    28   ar
    43    28    29   ar
    44    29    30   ar
    45    29    31    1
    46    30    33    1
    47    31    32    1
    48    32    33    1
    49    32    35    1
    50    34    97    1
    51    34    98    1
    52    34    99    1
    53    35    61    1
    54    36    37    1
    55    36    60    1
    56    37    38    1
    57    38    39    1
    58    39    40    1
    59    40    41    1
    60    41    42    1
    61    45   100    1
    62    47   101    1
    63    47   102    1
    64    47   103    1
    65    48   104    1
    66    49   105    1
    67    49   106    1
    68    49   107    1
    69    50   108    1
    70    51    59    1
    71    52   109    1
    72    52   110    1
    73    52   111    1
    74    53    54    1
    75    54    55    2
    76    54    56    1
    77    56   112    1
    78    56   113    1
    79    56   114    1
    80    57   115    1
    81    57   116    1
    82    57   117    1
    83    58   118    1
    84    58   119    1
    85    58   120    1
    86    59   121    1
    87    59   122    1
    88    59   123    1
    89    60    61    2
    90     1    47    1
    91     1    62    1
    92     2    63    1
    93     3    64    1
    94     4    65    1
    95     5     6    1
    96     7     8    2
    97     9    78    1
    98    15    79    1
    99    18    80    1
   100    18    81    1
   101    19    82    1
   102    19    83    1
   103    20    23    1
   104    21    84    1
   105    21    85    1
   106    22    86    1
   107    22    87    1
   108    27    45    1
   109    28    34    1
   110    32    58    1
   111    33    46    2
   112    36    51    1
   113    36    66    1
   114    37    52    1
   115    37    67    1
   116    38    53    1
   117    38    68    1
   118    42    48    1
   119    42    72    1
   120    43    44    2
   121    60    73    1
   122    61    74    1
   123    39    69    1
   124    39    57    1
   125    40    70    1
   126    40    50    1
   127    41    71    1
   128    41    49    1
