@<TRIPOS>MOLECULE
*****
 123 128 0 0 0
SMALL
GASTEIGER

@<TRIPOS>ATOM
     1 C         3.291298   1.957402   -3.625832 C.3        1 UNL1     0.0009
     2 C         4.089865   1.492663   -5.23311 C.2        1 UNL1     -0.0787
     3 C         5.276239   1.182757   -6.002864 C.2        1 UNL1     -0.0649
     4 C         5.366222   0.657221   -7.609747 C.2        1 UNL1     -0.0542
     5 C         6.174732   0.00895   -8.575736 C.2        1 UNL1     0.0115
     6 C         7.605207   -0.524133   -8.863634 C.3        1 UNL1     -0.0348
     7 C         5.482805   -0.579255   -9.899458 C.2        1 UNL1     0.2441
     8 O         5.536158   -0.016532   -10.984364 O.2        1 UNL1     -0.2702
     9 N         5.03605   -1.907624   -9.789923 N.am        1 UNL1     -0.2772
     10 C         3.750917   -1.943149   -9.299523 C.2        1 UNL1     0.1049
     11 C         3.626258   -1.862059   -7.987232 C.2        1 UNL1     0.0801
     12 C         1.478915   -0.94545   -9.615648 C.ar        1 UNL1     0.0753
     13 C         1.481642   -0.688847   -8.207544 C.ar        1 UNL1     0.0305
     14 C         2.50015   -1.258163   -7.328014 C.2        1 UNL1     0.0924
     15 N         4.557874   -1.959788   -7.023351 N.pl3        1 UNL1     -0.3170
     16 C         3.878288   -1.973604   -5.755192 C.3        1 UNL1     0.1275
     17 N         2.600833   -1.209041   -6.002731 N.2        1 UNL1     -0.2557
     18 C         3.462366   -3.415618   -5.48077 C.3        1 UNL1     0.0016
     19 C         4.699006   -4.298117   -5.539971 C.3        1 UNL1     0.0026
     20 N         5.655397   -3.830483   -4.546158 N.3        1 UNL1     -0.3018
     21 C         6.069209   -2.433264   -4.690747 C.3        1 UNL1     0.0026
     22 C         4.812035   -1.564404   -4.623724 C.3        1 UNL1     0.0016
     23 C         6.73182   -4.772455   -4.312393 C.3        1 UNL1     0.0012
     24 C         6.209364   -6.015063   -3.574342 C.3        1 UNL1     -0.0339
     25 C         7.265863   -6.583663   -2.612801 C.3        1 UNL1     -0.0615
     26 C         4.915083   -5.685434   -2.851182 C.3        1 UNL1     -0.0615
     27 C         0.439019   -0.500275   -10.428393 C.ar        1 UNL1     0.1347
     28 C         -0.667132   0.174164   -9.942991 C.ar        1 UNL1     0.0342
     29 C         -0.619175   0.458249   -8.56163 C.ar        1 UNL1     0.1435
     30 C         0.433316   0.050164   -7.741295 C.ar        1 UNL1     0.0774
     31 O         -1.670814   1.011486   -7.918985 O.3        1 UNL1     -0.4436
     32 C         -1.448327   0.710153   -6.533139 C.3        1 UNL1     0.3143
     33 C         0.044017   0.47617   -6.413239 C.2        1 UNL1     0.2504
     34 C         -1.930757   0.45939   -10.705879 C.3        1 UNL1     -0.0327
     35 O         -1.745992   1.896211   -5.786202 O.2        1 UNL1     -0.4528
     36 C         -2.978937   0.710132   -2.397817 C.3        1 UNL1     0.0854
     37 C         -2.256871   -0.212485   -1.341919 C.3        1 UNL1     0.0236
     38 C         -2.125896   0.416347   0.127489 C.3        1 UNL1     0.1131
     39 C         -1.530426   1.870566   0.308955 C.3        1 UNL1     0.0200
     40 C         -0.177694   2.342302   -0.545456 C.3        1 UNL1     0.0661
     41 C         1.27565   1.475366   -0.663032 C.3        1 UNL1     0.0091
     42 C         2.487959   1.365312   -2.035474 C.3        1 UNL1     0.0661
     43 C         2.575636   -1.778812   -10.167889 C.2        1 UNL1     0.2131
     44 O         2.49512   -2.38585   -11.220391 O.2        1 UNL1     -0.2851
     45 O         0.535562   -0.752076   -11.795402 O.3        1 UNL1     -0.5056
     46 O         0.755285   0.628575   -5.445394 O.2        1 UNL1     -0.2836
     47 C         3.543267   3.456771   -3.312165 C.3        1 UNL1     -0.0566
     48 O         3.666947   1.585982   -1.163461 O.3        1 UNL1     -0.3909
     49 C         1.045159   0.066392   -0.163871 C.3        1 UNL1     -0.0577
     50 O         -0.538563   2.854584   -1.812367 O.3        1 UNL1     -0.3910
     51 O         -3.260804   2.025438   -1.975972 O.3        1 UNL1     -0.3753
     52 C         -1.109465   -1.052802   -1.991745 C.3        1 UNL1     -0.0564
     53 O         -1.765162   -0.58954   1.181239 O.3        1 UNL1     -0.4608
     54 C         -1.225898   -0.298421   2.406953 C.2        1 UNL1     0.3042
     55 O         -0.051922   -0.420383   2.754432 O.2        1 UNL1     -0.2512
     56 C         -2.215195   0.282955   3.376492 C.3        1 UNL1     0.0332
     57 C         -2.760711   2.890198   0.379124 C.3        1 UNL1     -0.0567
     58 C         -2.186027   -0.619337   -6.250678 C.3        1 UNL1     0.0210
     59 C         -4.639875   2.291786   -1.724801 C.3        1 UNL1     0.0372
     60 C         -2.290175   0.819367   -3.712669 C.2        1 UNL1     -0.0208
     61 C         -2.041511   1.887078   -4.472211 C.2        1 UNL1     0.0882
     62 H         2.312731   1.900732   -4.117672 H        1 UNL1     0.0365
     63 H         3.226079   1.506329   -5.901059 H        1 UNL1     0.0576
     64 H         6.259306   1.105179   -5.533109 H        1 UNL1     0.0615
     65 H         4.364447   0.849609   -8.003343 H        1 UNL1     0.0622
     66 H         -3.933847   0.204432   -2.598965 H        1 UNL1     0.0645
     67 H         -2.975084   -1.03224   -1.166616 H        1 UNL1     0.0362
     68 H         -3.192244   0.503346   0.386057 H        1 UNL1     0.0741
     69 H         -1.215904   1.992078   1.336923 H        1 UNL1     0.0359
     70 H         0.116214   3.234366   0.040122 H        1 UNL1     0.0600
     71 H         1.833717   1.917636   0.185446 H        1 UNL1     0.0348
     72 H         1.899567   2.275261   -2.222834 H        1 UNL1     0.0602
     73 H         -2.094491   -0.154928   -4.08644 H        1 UNL1     0.0628
     74 H         -2.159356   2.919699   -4.141993 H        1 UNL1     0.1022
     75 H         8.371222   0.240477   -8.588633 H        1 UNL1     0.0279
     76 H         7.924052   -1.391836   -8.290486 H        1 UNL1     0.0279
     77 H         7.802985   -0.652522   -9.937925 H        1 UNL1     0.0279
     78 H         5.627904   -2.414653   -9.135164 H        1 UNL1     0.1553
     79 H         5.46032   -2.37636   -7.161165 H        1 UNL1     0.1484
     80 H         2.979953   -3.467571   -4.497233 H        1 UNL1     0.0317
     81 H         2.720775   -3.75486   -6.211939 H        1 UNL1     0.0317
     82 H         5.145211   -4.306827   -6.545326 H        1 UNL1     0.0428
     83 H         4.379483   -5.321972   -5.34331 H        1 UNL1     0.0428
     84 H         6.724785   -2.084513   -3.886754 H        1 UNL1     0.0428
     85 H         6.659094   -2.274051   -5.603985 H        1 UNL1     0.0428
     86 H         5.162628   -0.549296   -4.59867 H        1 UNL1     0.0317
     87 H         4.322613   -1.687981   -3.649922 H        1 UNL1     0.0317
     88 H         7.12897   -5.085909   -5.28672 H        1 UNL1     0.0429
     89 H         7.559058   -4.304445   -3.763377 H        1 UNL1     0.0429
     90 H         5.953638   -6.787989   -4.308782 H        1 UNL1     0.0308
     91 H         7.729281   -5.791276   -2.017427 H        1 UNL1     0.0233
     92 H         6.820273   -7.322138   -1.942196 H        1 UNL1     0.0233
     93 H         8.076476   -7.100089   -3.14105 H        1 UNL1     0.0233
     94 H         4.744238   -6.399422   -2.038243 H        1 UNL1     0.0233
     95 H         4.975766   -4.684897   -2.413912 H        1 UNL1     0.0233
     96 H         4.058211   -5.722764   -3.52967 H        1 UNL1     0.0233
     97 H         -2.803958   0.031594   -10.222412 H        1 UNL1     0.0280
     98 H         -2.130179   1.535792   -10.788624 H        1 UNL1     0.0280
     99 H         -1.853804   0.033678   -11.719754 H        1 UNL1     0.0280
     100 H         0.182857   -1.581326   -12.066633 H        1 UNL1     0.2922
     101 H         2.636397   4.029933   -3.503808 H        1 UNL1     0.0236
     102 H         4.404705   3.866006   -3.838886 H        1 UNL1     0.0236
     103 H         3.760617   3.625621   -2.24425 H        1 UNL1     0.0236
     104 H         3.821862   2.549642   -1.115176 H        1 UNL1     0.2098
     105 H         1.321081   -0.711488   -0.871389 H        1 UNL1     0.0234
     106 H         1.472852   -0.145228   0.816039 H        1 UNL1     0.0234
     107 H         0.0   0.0   0.0 H        1 UNL1     0.0234
     108 H         -0.794605   2.094979   -2.370229 H        1 UNL1     0.2098
     109 H         -1.479688   -1.722189   -2.780775 H        1 UNL1     0.0234
     110 H         -0.294998   -0.436082   -2.386768 H        1 UNL1     0.0234
     111 H         -0.617993   -1.703564   -1.256279 H        1 UNL1     0.0234
     112 H         -1.716328   0.516898   4.321875 H        1 UNL1     0.0342
     113 H         -2.717587   1.160461   2.972228 H        1 UNL1     0.0342
     114 H         -2.983084   -0.476125   3.579737 H        1 UNL1     0.0342
     115 H         -3.499445   2.587527   1.134009 H        1 UNL1     0.0234
     116 H         -2.471724   3.920275   0.597018 H        1 UNL1     0.0234
     117 H         -3.379785   2.896161   -0.534469 H        1 UNL1     0.0234
     118 H         -3.067885   -0.474527   -5.602325 H        1 UNL1     0.0309
     119 H         -2.493445   -1.142105   -7.161947 H        1 UNL1     0.0309
     120 H         -1.571556   -1.32936   -5.686409 H        1 UNL1     0.0309
     121 H         -4.80007   3.360482   -1.86474 H        1 UNL1     0.0524
     122 H         -5.303248   1.76174   -2.428381 H        1 UNL1     0.0524
     123 H         -4.899612   2.003531   -0.710139 H        1 UNL1     0.0524
@<TRIPOS>BOND
     1     1     2    1
     2     1    42    1
     3     2     3    2
     4     3     4    1
     5     4     5    2
     6     5     7    1
     7     6    75    1
     8     6    76    1
     9     6    77    1
    10     7     9   am
    11     9    10    1
    12    10    11    2
    13    10    43    1
    14    11    14    1
    15    11    15    1
    16    12    13   ar
    17    12    27   ar
    18    12    43    1
    19    13    14    1
    20    13    30   ar
    21    14    17    2
    22    15    16    1
    23    16    17    1
    24    16    18    1
    25    16    22    1
    26    18    19    1
    27    19    20    1
    28    20    21    1
    29    21    22    1
    30    23    24    1
    31    23    88    1
    32    23    89    1
    33    24    25    1
    34    24    26    1
    35    24    90    1
    36    25    91    1
    37    25    92    1
    38    25    93    1
    39    26    94    1
    40    26    95    1
    41    26    96    1
    42    27    28   ar
    43    28    29   ar
    44    29    30   ar
    45    29    31    1
    46    30    33    1
    47    31    32    1
    48    32    33    1
    49    32    35    1
    50    34    97    1
    51    34    98    1
    52    34    99    1
    53    35    61    1
    54    36    37    1
    55    36    60    1
    56    37    38    1
    57    38    39    1
    58    39    40    1
    59    40    41    1
    60    41    42    1
    61    45   100    1
    62    47   101    1
    63    47   102    1
    64    47   103    1
    65    48   104    1
    66    49   105    1
    67    49   106    1
    68    49   107    1
    69    50   108    1
    70    51    59    1
    71    52   109    1
    72    52   110    1
    73    52   111    1
    74    53    54    1
    75    54    55    2
    76    54    56    1
    77    56   112    1
    78    56   113    1
    79    56   114    1
    80    57   115    1
    81    57   116    1
    82    57   117    1
    83    58   118    1
    84    58   119    1
    85    58   120    1
    86    59   121    1
    87    59   122    1
    88    59   123    1
    89    60    61    2
    90     1    47    1
    91     1    62    1
    92     2    63    1
    93     3    64    1
    94     4    65    1
    95     5     6    1
    96     7     8    2
    97     9    78    1
    98    15    79    1
    99    18    80    1
   100    18    81    1
   101    19    82    1
   102    19    83    1
   103    20    23    1
   104    21    84    1
   105    21    85    1
   106    22    86    1
   107    22    87    1
   108    27    45    1
   109    28    34    1
   110    32    58    1
   111    33    46    2
   112    36    51    1
   113    36    66    1
   114    37    52    1
   115    37    67    1
   116    38    53    1
   117    38    68    1
   118    42    48    1
   119    42    72    1
   120    43    44    2
   121    60    73    1
   122    61    74    1
   123    39    69    1
   124    39    57    1
   125    40    70    1
   126    40    50    1
   127    41    71    1
   128    41    49    1
