@<TRIPOS>MOLECULE
*****
 123 128 0 0 0
SMALL
GASTEIGER

@<TRIPOS>ATOM
     1 C         1.711772   4.948735   -1.280255 C.3        1 UNL1     0.0009
     2 C         3.147393   5.982266   -1.835094 C.2        1 UNL1     -0.0787
     3 C         4.289011   6.816551   -1.524092 C.2        1 UNL1     -0.0649
     4 C         5.429127   7.461955   -2.596448 C.2        1 UNL1     -0.0542
     5 C         6.731251   8.006928   -2.71709 C.2        1 UNL1     0.0115
     6 C         7.951567   8.535587   -1.914176 C.3        1 UNL1     -0.0348
     7 C         7.41935   8.061512   -4.16641 C.2        1 UNL1     0.2441
     8 O         7.486994   9.085184   -4.832777 O.2        1 UNL1     -0.2702
     9 N         8.1678   6.921162   -4.506376 N.am        1 UNL1     -0.2772
     10 C         7.362661   5.978978   -5.104176 C.2        1 UNL1     0.1049
     11 C         6.67191   5.202288   -4.289415 C.2        1 UNL1     0.0801
     12 C         5.644769   5.689073   -6.899207 C.ar        1 UNL1     0.0753
     13 C         4.840273   5.03218   -5.914379 C.ar        1 UNL1     0.0305
     14 C         5.383445   4.651861   -4.612314 C.2        1 UNL1     0.0924
     15 N         6.77759   5.033909   -2.960126 N.pl3        1 UNL1     -0.3170
     16 C         5.910687   3.948763   -2.584369 C.3        1 UNL1     0.1275
     17 N         4.82004   3.957851   -3.627503 N.2        1 UNL1     -0.2557
     18 C         6.689039   2.653865   -2.796763 C.3        1 UNL1     0.0016
     19 C         7.982777   2.728085   -2.001577 C.3        1 UNL1     0.0026
     20 N         7.656999   2.91889   -0.594989 N.3        1 UNL1     -0.3018
     21 C         6.855447   4.107923   -0.298202 C.3        1 UNL1     0.0026
     22 C         5.558802   4.010231   -1.103847 C.3        1 UNL1     0.0016
     23 C         8.791763   2.704552   0.280804 C.3        1 UNL1     0.0012
     24 C         10.010599   2.226625   -0.524044 C.3        1 UNL1     -0.0339
     25 C         10.870633   1.24423   0.287928 C.3        1 UNL1     -0.0615
     26 C         9.55938   1.618369   -1.840557 C.3        1 UNL1     -0.0615
     27 C         5.156844   5.939766   -8.179519 C.ar        1 UNL1     0.1347
     28 C         3.899649   5.546313   -8.602257 C.ar        1 UNL1     0.0342
     29 C         3.107628   4.94504   -7.601089 C.ar        1 UNL1     0.1435
     30 C         3.570098   4.720018   -6.303897 C.ar        1 UNL1     0.0774
     31 O         1.900819   4.408292   -7.884849 O.3        1 UNL1     -0.4436
     32 C         1.636693   3.512851   -6.794301 C.3        1 UNL1     0.3143
     33 C         2.482332   4.02625   -5.646465 C.2        1 UNL1     0.2504
     34 C         3.404019   5.554622   -10.021546 C.3        1 UNL1     -0.0327
     35 O         0.266388   3.694124   -6.416601 O.2        1 UNL1     -0.4528
     36 C         -0.894001   0.340657   -5.069069 C.3        1 UNL1     0.0854
     37 C         -0.301231   -0.516491   -3.885243 C.3        1 UNL1     0.0236
     38 C         -1.353862   -0.906149   -2.739871 C.3        1 UNL1     0.1131
     39 C         -2.252584   0.218302   -2.083991 C.3        1 UNL1     0.0200
     40 C         -1.589145   1.687914   -1.656759 C.3        1 UNL1     0.0661
     41 C         -0.177472   1.912954   -0.743443 C.3        1 UNL1     0.0091
     42 C         1.085779   3.241394   -0.81305 C.3        1 UNL1     0.0661
     43 C         7.047388   6.014522   -6.540036 C.2        1 UNL1     0.2131
     44 O         7.927014   6.199191   -7.361555 O.2        1 UNL1     -0.2851
     45 O         5.987729   6.624567   -9.063892 O.3        1 UNL1     -0.5056
     46 O         2.289625   3.908385   -4.457 O.2        1 UNL1     -0.2836
     47 C         0.555758   5.855926   -0.779638 C.3        1 UNL1     -0.0566
     48 O         1.108143   3.453764   0.654436 O.3        1 UNL1     -0.3909
     49 C         0.567693   0.599149   -0.665105 C.3        1 UNL1     -0.0577
     50 O         -1.603898   2.58169   -2.751598 O.3        1 UNL1     -0.3910
     51 O         -2.214152   0.803196   -4.893886 O.3        1 UNL1     -0.3753
     52 C         1.173425   -0.113502   -3.556703 C.3        1 UNL1     -0.0564
     53 O         -0.870969   -1.993539   -1.825145 O.3        1 UNL1     -0.4608
     54 C         -1.103866   -2.059716   -0.476328 C.2        1 UNL1     0.3042
     55 O         -1.624826   -2.983655   0.147192 O.2        1 UNL1     -0.2512
     56 C         -0.595158   -0.866285   0.281069 C.3        1 UNL1     0.0332
     57 C         -3.652416   0.229207   -2.857635 C.3        1 UNL1     -0.0567
     58 C         2.170758   2.127449   -7.226697 C.3        1 UNL1     0.0210
     59 C         -3.190691   0.149347   -5.703033 C.3        1 UNL1     0.0372
     60 C         -0.075077   1.519149   -5.46363 C.2        1 UNL1     -0.0208
     61 C         -0.438786   2.774189   -5.730717 C.2        1 UNL1     0.0882
     62 H         1.496362   4.718344   -2.330603 H        1 UNL1     0.0365
     63 H         3.010119   5.956721   -2.918132 H        1 UNL1     0.0576
     64 H         4.618372   6.975522   -0.494841 H        1 UNL1     0.0615
     65 H         4.970321   7.323248   -3.579169 H        1 UNL1     0.0622
     66 H         -0.882171   -0.337633   -5.933841 H        1 UNL1     0.0645
     67 H         -0.09939   -1.500984   -4.341963 H        1 UNL1     0.0362
     68 H         -2.046296   -1.526062   -3.329588 H        1 UNL1     0.0741
     69 H         -2.639112   -0.14989   -1.143014 H        1 UNL1     0.0359
     70 H         -2.380464   2.065146   -0.981058 H        1 UNL1     0.0600
     71 H         -0.612971   1.976404   0.273057 H        1 UNL1     0.0348
     72 H         0.190564   3.648104   -1.305485 H        1 UNL1     0.0602
     73 H         0.923063   1.205936   -5.644909 H        1 UNL1     0.0628
     74 H         -1.424921   3.188789   -5.518864 H        1 UNL1     0.1022
     75 H         8.77366   7.77984   -1.907561 H        1 UNL1     0.0279
     76 H         8.447967   9.418236   -2.311149 H        1 UNL1     0.0279
     77 H         7.741741   8.637091   -0.839294 H        1 UNL1     0.0279
     78 H         8.555299   6.502521   -3.663368 H        1 UNL1     0.1553
     79 H         7.589566   5.290047   -2.42907 H        1 UNL1     0.1484
     80 H         6.069622   1.807652   -2.475808 H        1 UNL1     0.0317
     81 H         6.906763   2.497907   -3.858801 H        1 UNL1     0.0317
     82 H         8.64038   3.530132   -2.367899 H        1 UNL1     0.0428
     83 H         8.52296   1.795708   -2.168685 H        1 UNL1     0.0428
     84 H         6.557443   4.185085   0.752061 H        1 UNL1     0.0428
     85 H         7.414541   5.035055   -0.485702 H        1 UNL1     0.0428
     86 H         4.944137   4.822565   -0.762837 H        1 UNL1     0.0317
     87 H         4.994756   3.120085   -0.799564 H        1 UNL1     0.0317
     88 H         9.041043   3.661703   0.757266 H        1 UNL1     0.0429
     89 H         8.546988   1.998992   1.085195 H        1 UNL1     0.0429
     90 H         10.627462   3.093125   -0.790263 H        1 UNL1     0.0308
     91 H         11.335614   1.738279   1.146305 H        1 UNL1     0.0233
     92 H         10.268196   0.403897   0.640798 H        1 UNL1     0.0233
     93 H         11.68278   0.809593   -0.30734 H        1 UNL1     0.0233
     94 H         10.331759   0.94678   -2.23073 H        1 UNL1     0.0233
     95 H         8.648542   1.032464   -1.688727 H        1 UNL1     0.0233
     96 H         9.361869   2.390123   -2.589792 H        1 UNL1     0.0233
     97 H         3.098326   4.566456   -10.352169 H        1 UNL1     0.0280
     98 H         2.524778   6.199547   -10.149076 H        1 UNL1     0.0280
     99 H         4.205055   5.91025   -10.6901 H        1 UNL1     0.0280
     100 H         6.902243   6.595896   -8.843745 H        1 UNL1     0.2922
     101 H         -0.266783   5.831206   -1.494111 H        1 UNL1     0.0236
     102 H         0.874806   6.873872   -0.558333 H        1 UNL1     0.0236
     103 H         0.118587   5.487187   0.163287 H        1 UNL1     0.0236
     104 H         0.42618   4.12084   0.866351 H        1 UNL1     0.2098
     105 H         0.641904   0.067851   -1.610635 H        1 UNL1     0.0234
     106 H         1.54543   0.657987   -0.187091 H        1 UNL1     0.0234
     107 H         0.0   0.0   0.0 H        1 UNL1     0.0234
     108 H         -2.103666   3.373209   -2.473214 H        1 UNL1     0.2098
     109 H         1.846623   -0.265715   -4.411892 H        1 UNL1     0.0234
     110 H         1.26782   0.915982   -3.194771 H        1 UNL1     0.0234
     111 H         1.586968   -0.721419   -2.741004 H        1 UNL1     0.0234
     112 H         -1.342347   -0.543465   1.012398 H        1 UNL1     0.0342
     113 H         0.361969   -1.063647   0.761486 H        1 UNL1     0.0342
     114 H         -0.446016   -0.044756   -0.433082 H        1 UNL1     0.0342
     115 H         -3.525778   0.046759   -3.933676 H        1 UNL1     0.0234
     116 H         -4.37228   -0.50131   -2.483213 H        1 UNL1     0.0234
     117 H         -4.143065   1.217714   -2.865399 H        1 UNL1     0.0234
     118 H         1.354274   1.407591   -7.411528 H        1 UNL1     0.0309
     119 H         2.815605   2.172175   -8.110085 H        1 UNL1     0.0309
     120 H         2.762936   1.641996   -6.443264 H        1 UNL1     0.0309
     121 H         -4.17115   0.50809   -5.391006 H        1 UNL1     0.0524
     122 H         -3.075003   0.388155   -6.773371 H        1 UNL1     0.0524
     123 H         -3.126678   -0.927271   -5.573069 H        1 UNL1     0.0524
@<TRIPOS>BOND
     1     1     2    1
     2     1    42    1
     3     2     3    2
     4     3     4    1
     5     4     5    2
     6     5     7    1
     7     6    75    1
     8     6    76    1
     9     6    77    1
    10     7     9   am
    11     9    10    1
    12    10    11    2
    13    10    43    1
    14    11    14    1
    15    11    15    1
    16    12    13   ar
    17    12    27   ar
    18    12    43    1
    19    13    14    1
    20    13    30   ar
    21    14    17    2
    22    15    16    1
    23    16    17    1
    24    16    18    1
    25    16    22    1
    26    18    19    1
    27    19    20    1
    28    20    21    1
    29    21    22    1
    30    23    24    1
    31    23    88    1
    32    23    89    1
    33    24    25    1
    34    24    26    1
    35    24    90    1
    36    25    91    1
    37    25    92    1
    38    25    93    1
    39    26    94    1
    40    26    95    1
    41    26    96    1
    42    27    28   ar
    43    28    29   ar
    44    29    30   ar
    45    29    31    1
    46    30    33    1
    47    31    32    1
    48    32    33    1
    49    32    35    1
    50    34    97    1
    51    34    98    1
    52    34    99    1
    53    35    61    1
    54    36    37    1
    55    36    60    1
    56    37    38    1
    57    38    39    1
    58    39    40    1
    59    40    41    1
    60    41    42    1
    61    45   100    1
    62    47   101    1
    63    47   102    1
    64    47   103    1
    65    48   104    1
    66    49   105    1
    67    49   106    1
    68    49   107    1
    69    50   108    1
    70    51    59    1
    71    52   109    1
    72    52   110    1
    73    52   111    1
    74    53    54    1
    75    54    55    2
    76    54    56    1
    77    56   112    1
    78    56   113    1
    79    56   114    1
    80    57   115    1
    81    57   116    1
    82    57   117    1
    83    58   118    1
    84    58   119    1
    85    58   120    1
    86    59   121    1
    87    59   122    1
    88    59   123    1
    89    60    61    2
    90     1    47    1
    91     1    62    1
    92     2    63    1
    93     3    64    1
    94     4    65    1
    95     5     6    1
    96     7     8    2
    97     9    78    1
    98    15    79    1
    99    18    80    1
   100    18    81    1
   101    19    82    1
   102    19    83    1
   103    20    23    1
   104    21    84    1
   105    21    85    1
   106    22    86    1
   107    22    87    1
   108    27    45    1
   109    28    34    1
   110    32    58    1
   111    33    46    2
   112    36    51    1
   113    36    66    1
   114    37    52    1
   115    37    67    1
   116    38    53    1
   117    38    68    1
   118    42    48    1
   119    42    72    1
   120    43    44    2
   121    60    73    1
   122    61    74    1
   123    39    69    1
   124    39    57    1
   125    40    70    1
   126    40    50    1
   127    41    71    1
   128    41    49    1
