@<TRIPOS>MOLECULE
*****
 123 128 0 0 0
SMALL
GASTEIGER

@<TRIPOS>ATOM
     1 C         4.958571   2.100404   -0.028518 C.3        1 UNL1     0.0009
     2 C         6.632756   1.922854   -0.804802 C.2        1 UNL1     -0.0787
     3 C         8.035224   1.578775   -0.701169 C.2        1 UNL1     -0.0649
     4 C         9.182018   1.500311   -1.944175 C.2        1 UNL1     -0.0542
     5 C         10.439294   0.975367   -2.332465 C.2        1 UNL1     0.0115
     6 C         11.706304   0.23818   -1.818106 C.3        1 UNL1     -0.0348
     7 C         10.815625   0.934034   -3.892483 C.2        1 UNL1     0.2441
     8 O         11.569013   1.742686   -4.416901 O.2        1 UNL1     -0.2702
     9 N         10.431883   -0.242131   -4.559963 N.am        1 UNL1     -0.2772
     10 C         9.147769   -0.124609   -5.04013 C.2        1 UNL1     0.1049
     11 C         8.178906   -0.375517   -4.178404 C.2        1 UNL1     0.0801
     12 C         7.648301   1.396649   -6.341938 C.ar        1 UNL1     0.0753
     13 C         6.707591   1.256294   -5.272371 C.ar        1 UNL1     0.0305
     14 C         6.890102   0.260681   -4.21857 C.2        1 UNL1     0.0924
     15 N         8.232537   -0.93275   -2.956462 N.pl3        1 UNL1     -0.3170
     16 C         6.88106   -1.138384   -2.507597 C.3        1 UNL1     0.1275
     17 N         6.081075   -0.073366   -3.217164 N.2        1 UNL1     -0.2557
     18 C         6.412312   -2.472389   -3.080665 C.3        1 UNL1     0.0016
     19 C         7.388282   -3.556114   -2.650998 C.3        1 UNL1     0.0026
     20 N         7.43096   -3.596988   -1.195823 N.3        1 UNL1     -0.3018
     21 C         7.812357   -2.339563   -0.549456 C.3        1 UNL1     0.0026
     22 C         6.816099   -1.266209   -0.991356 C.3        1 UNL1     0.0016
     23 C         8.093257   -4.780258   -0.684082 C.3        1 UNL1     0.0012
     24 C         8.779331   -4.476   0.656994 C.3        1 UNL1     -0.0339
     25 C         8.227236   -5.362924   1.785096 C.3        1 UNL1     -0.0615
     26 C         10.284584   -4.622152   0.516873 C.3        1 UNL1     -0.0615
     27 C         7.407417   2.262587   -7.406008 C.ar        1 UNL1     0.1347
     28 C         6.248149   3.007443   -7.529844 C.ar        1 UNL1     0.0342
     29 C         5.358512   2.8901   -6.440834 C.ar        1 UNL1     0.1435
     30 C         5.603104   2.054101   -5.35065 C.ar        1 UNL1     0.0774
     31 O         4.137108   3.466878   -6.463301 O.3        1 UNL1     -0.4436
     32 C         3.384375   2.761156   -5.465192 C.3        1 UNL1     0.3143
     33 C         4.420707   2.180546   -4.524384 C.2        1 UNL1     0.2504
     34 C         5.809959   3.759312   -8.755724 C.3        1 UNL1     -0.0327
     35 O         2.64484   3.736718   -4.720465 O.2        1 UNL1     -0.4528
     36 C         -0.512497   1.981739   -3.554549 C.3        1 UNL1     0.0854
     37 C         -0.662564   0.672692   -2.687715 C.3        1 UNL1     0.0236
     38 C         -1.554776   0.836397   -1.365255 C.3        1 UNL1     0.1131
     39 C         -1.256237   2.019156   -0.358167 C.3        1 UNL1     0.0200
     40 C         0.313555   2.393889   0.063456 C.3        1 UNL1     0.0661
     41 C         1.489688   1.292752   0.594322 C.3        1 UNL1     0.0091
     42 C         3.309807   1.293032   0.365041 C.3        1 UNL1     0.0661
     43 C         8.847749   0.522966   -6.325816 C.2        1 UNL1     0.2131
     44 O         9.499355   0.255979   -7.319228 O.2        1 UNL1     -0.2851
     45 O         8.394651   2.374465   -8.382886 O.3        1 UNL1     -0.5056
     46 O         4.303269   1.905255   -3.351235 O.2        1 UNL1     -0.2836
     47 C         4.912217   3.365489   0.870033 C.3        1 UNL1     -0.0566
     48 O         3.603711   1.004514   1.789644 O.3        1 UNL1     -0.3909
     49 C         1.00882   -0.111847   0.305602 C.3        1 UNL1     -0.0577
     50 O         0.880346   3.295711   -0.865623 O.3        1 UNL1     -0.3910
     51 O         -1.025759   3.162753   -2.98079 O.3        1 UNL1     -0.3753
     52 C         0.639816   -0.192329   -2.709938 C.3        1 UNL1     -0.0564
     53 O         -1.971336   -0.470476   -0.75625 O.3        1 UNL1     -0.4608
     54 C         -2.885143   -0.621648   0.253717 C.2        1 UNL1     0.3042
     55 O         -2.768605   -1.30493   1.270272 O.2        1 UNL1     -0.2512
     56 C         -4.125256   0.206407   0.071624 C.3        1 UNL1     0.0332
     57 C         -2.237076   3.22705   -0.728467 C.3        1 UNL1     -0.0567
     58 C         2.668547   1.601367   -6.195953 C.3        1 UNL1     0.0210
     59 C         -0.827816   4.342272   -3.758877 C.3        1 UNL1     0.0372
     60 C         0.875341   2.287394   -3.996865 C.2        1 UNL1     -0.0208
     61 C         1.549004   3.438446   -3.996472 C.2        1 UNL1     0.0882
     62 H         4.557935   2.395794   -1.005732 H        1 UNL1     0.0365
     63 H         6.433863   2.306429   -1.807689 H        1 UNL1     0.0576
     64 H         8.456181   1.162529   0.216786 H        1 UNL1     0.0615
     65 H         8.694436   2.007722   -2.781003 H        1 UNL1     0.0622
     66 H         -1.081714   1.772545   -4.471215 H        1 UNL1     0.0645
     67 H         -1.300988   0.015311   -3.303202 H        1 UNL1     0.0362
     68 H         -2.523363   1.083143   -1.826209 H        1 UNL1     0.0741
     69 H         -1.708942   1.786118   0.59638 H        1 UNL1     0.0359
     70 H         0.127414   3.007085   0.965898 H        1 UNL1     0.0600
     71 H         1.33276   1.355147   1.689054 H        1 UNL1     0.0348
     72 H         2.980875   2.326191   0.18146 H        1 UNL1     0.0602
     73 H         1.286617   1.432015   -4.472708 H        1 UNL1     0.0628
     74 H         1.223796   4.343098   -3.481611 H        1 UNL1     0.1022
     75 H         12.10104   -0.454847   -2.599726 H        1 UNL1     0.0279
     76 H         12.571866   0.858352   -1.596168 H        1 UNL1     0.0279
     77 H         11.487711   -0.46165   -0.998254 H        1 UNL1     0.0279
     78 H         10.445145   -1.024626   -3.909115 H        1 UNL1     0.1553
     79 H         9.004002   -1.484882   -2.629468 H        1 UNL1     0.1484
     80 H         5.398127   -2.680364   -2.718808 H        1 UNL1     0.0317
     81 H         6.352543   -2.429448   -4.173475 H        1 UNL1     0.0317
     82 H         8.391036   -3.391125   -3.07192 H        1 UNL1     0.0428
     83 H         7.036206   -4.498436   -3.071857 H        1 UNL1     0.0428
     84 H         7.759321   -2.3743   0.543152 H        1 UNL1     0.0428
     85 H         8.857999   -2.073729   -0.757497 H        1 UNL1     0.0428
     86 H         7.043714   -0.398808   -0.399921 H        1 UNL1     0.0317
     87 H         5.804376   -1.537141   -0.665611 H        1 UNL1     0.0317
     88 H         7.33167   -5.553684   -0.519491 H        1 UNL1     0.0429
     89 H         8.808708   -5.18324   -1.412443 H        1 UNL1     0.0429
     90 H         8.603555   -3.426261   0.920365 H        1 UNL1     0.0308
     91 H         7.266136   -5.806415   1.508139 H        1 UNL1     0.0233
     92 H         8.93284   -6.160249   2.030055 H        1 UNL1     0.0233
     93 H         8.063509   -4.803414   2.714062 H        1 UNL1     0.0233
     94 H         10.56426   -5.681111   0.531851 H        1 UNL1     0.0233
     95 H         10.613806   -4.199985   -0.436725 H        1 UNL1     0.0233
     96 H         10.812158   -4.113883   1.328844 H        1 UNL1     0.0233
     97 H         5.647454   4.813287   -8.550885 H        1 UNL1     0.0280
     98 H         6.561238   3.72091   -9.555324 H        1 UNL1     0.0280
     99 H         4.867058   3.331364   -9.133737 H        1 UNL1     0.0280
     100 H         8.572855   1.578577   -8.852385 H        1 UNL1     0.2922
     101 H         4.105109   4.02014   0.541911 H        1 UNL1     0.0236
     102 H         5.866585   3.888243   0.923837 H        1 UNL1     0.0236
     103 H         4.666265   3.121096   1.91692 H        1 UNL1     0.0236
     104 H         2.921299   1.451208   2.327928 H        1 UNL1     0.2098
     105 H         1.545291   -0.614481   -0.495253 H        1 UNL1     0.0234
     106 H         0.942178   -0.759098   1.179989 H        1 UNL1     0.0234
     107 H         -0.0   0.0   0.0 H        1 UNL1     0.0234
     108 H         0.97529   4.15626   -0.413727 H        1 UNL1     0.2098
     109 H         0.810915   -0.711145   -1.756383 H        1 UNL1     0.0234
     110 H         0.660897   -0.9175   -3.530563 H        1 UNL1     0.0234
     111 H         1.53272   0.424734   -2.876977 H        1 UNL1     0.0234
     112 H         -4.255232   0.875202   0.927875 H        1 UNL1     0.0342
     113 H         -4.110588   0.765937   -0.862482 H        1 UNL1     0.0342
     114 H         -4.989071   -0.47181   0.039859 H        1 UNL1     0.0342
     115 H         -2.095225   4.087797   -0.060499 H        1 UNL1     0.0234
     116 H         -2.131342   3.586351   -1.754026 H        1 UNL1     0.0234
     117 H         -3.302638   2.997068   -0.556338 H        1 UNL1     0.0234
     118 H         2.410069   0.775815   -5.509907 H        1 UNL1     0.0309
     119 H         1.766793   1.92041   -6.728168 H        1 UNL1     0.0309
     120 H         3.306871   1.117974   -6.943602 H        1 UNL1     0.0309
     121 H         0.139951   4.760441   -3.483347 H        1 UNL1     0.0524
     122 H         -0.802008   4.130354   -4.840756 H        1 UNL1     0.0524
     123 H         -1.617359   5.061178   -3.55915 H        1 UNL1     0.0524
@<TRIPOS>BOND
     1     1     2    1
     2     1    42    1
     3     2     3    2
     4     3     4    1
     5     4     5    2
     6     5     7    1
     7     6    75    1
     8     6    76    1
     9     6    77    1
    10     7     9   am
    11     9    10    1
    12    10    11    2
    13    10    43    1
    14    11    14    1
    15    11    15    1
    16    12    13   ar
    17    12    27   ar
    18    12    43    1
    19    13    14    1
    20    13    30   ar
    21    14    17    2
    22    15    16    1
    23    16    17    1
    24    16    18    1
    25    16    22    1
    26    18    19    1
    27    19    20    1
    28    20    21    1
    29    21    22    1
    30    23    24    1
    31    23    88    1
    32    23    89    1
    33    24    25    1
    34    24    26    1
    35    24    90    1
    36    25    91    1
    37    25    92    1
    38    25    93    1
    39    26    94    1
    40    26    95    1
    41    26    96    1
    42    27    28   ar
    43    28    29   ar
    44    29    30   ar
    45    29    31    1
    46    30    33    1
    47    31    32    1
    48    32    33    1
    49    32    35    1
    50    34    97    1
    51    34    98    1
    52    34    99    1
    53    35    61    1
    54    36    37    1
    55    36    60    1
    56    37    38    1
    57    38    39    1
    58    39    40    1
    59    40    41    1
    60    41    42    1
    61    45   100    1
    62    47   101    1
    63    47   102    1
    64    47   103    1
    65    48   104    1
    66    49   105    1
    67    49   106    1
    68    49   107    1
    69    50   108    1
    70    51    59    1
    71    52   109    1
    72    52   110    1
    73    52   111    1
    74    53    54    1
    75    54    55    2
    76    54    56    1
    77    56   112    1
    78    56   113    1
    79    56   114    1
    80    57   115    1
    81    57   116    1
    82    57   117    1
    83    58   118    1
    84    58   119    1
    85    58   120    1
    86    59   121    1
    87    59   122    1
    88    59   123    1
    89    60    61    2
    90     1    47    1
    91     1    62    1
    92     2    63    1
    93     3    64    1
    94     4    65    1
    95     5     6    1
    96     7     8    2
    97     9    78    1
    98    15    79    1
    99    18    80    1
   100    18    81    1
   101    19    82    1
   102    19    83    1
   103    20    23    1
   104    21    84    1
   105    21    85    1
   106    22    86    1
   107    22    87    1
   108    27    45    1
   109    28    34    1
   110    32    58    1
   111    33    46    2
   112    36    51    1
   113    36    66    1
   114    37    52    1
   115    37    67    1
   116    38    53    1
   117    38    68    1
   118    42    48    1
   119    42    72    1
   120    43    44    2
   121    60    73    1
   122    61    74    1
   123    39    69    1
   124    39    57    1
   125    40    70    1
   126    40    50    1
   127    41    71    1
   128    41    49    1
