@<TRIPOS>MOLECULE
*****
 123 128 0 0 0
SMALL
GASTEIGER

@<TRIPOS>ATOM
     1 C         3.179906   -4.292108   1.21563 C.3        1 UNL1     0.0009
     2 C         4.008223   -5.819606   0.569349 C.2        1 UNL1     -0.0787
     3 C         4.053469   -7.259755   0.428028 C.2        1 UNL1     -0.0649
     4 C         5.13591   -8.181643   -0.491103 C.2        1 UNL1     -0.0542
     5 C         5.356286   -9.435603   -1.112468 C.2        1 UNL1     0.0115
     6 C         4.817369   -10.887071   -1.239486 C.3        1 UNL1     -0.0348
     7 C         6.487113   -9.552963   -2.245802 C.2        1 UNL1     0.2441
     8 O         7.58926   -10.041462   -2.038037 O.2        1 UNL1     -0.2702
     9 N         6.038983   -9.297985   -3.553593 N.am        1 UNL1     -0.2772
     10 C         6.124927   -7.954304   -3.83724 C.2        1 UNL1     0.1049
     11 C         5.121302   -7.20547   -3.417468 C.2        1 UNL1     0.0801
     12 C         7.681095   -5.999005   -3.725523 C.ar        1 UNL1     0.0753
     13 C         6.618573   -5.290173   -3.079602 C.ar        1 UNL1     0.0305
     14 C         5.261794   -5.829705   -3.023883 C.2        1 UNL1     0.0924
     15 N         3.918313   -7.56372   -2.936844 N.pl3        1 UNL1     -0.3170
     16 C         3.131468   -6.368499   -2.786595 C.3        1 UNL1     0.1275
     17 N         4.145905   -5.274302   -2.559936 N.2        1 UNL1     -0.2557
     18 C         2.489214   -6.076922   -4.139442 C.3        1 UNL1     0.0016
     19 C         1.697155   -7.299307   -4.575337 C.3        1 UNL1     0.0026
     20 N         0.686666   -7.586089   -3.566528 N.3        1 UNL1     -0.3018
     21 C         1.204395   -7.819776   -2.216818 C.3        1 UNL1     0.0026
     22 C         1.99259   -6.577745   -1.797292 C.3        1 UNL1     0.0016
     23 C         -0.308498   -8.537389   -4.019651 C.3        1 UNL1     0.0012
     24 C         0.186207   -9.976775   -3.807065 C.3        1 UNL1     -0.0339
     25 C         0.949014   -10.118982   -2.479677 C.3        1 UNL1     -0.0615
     26 C         -0.980563   -10.945742   -3.887871 C.3        1 UNL1     -0.0615
     27 C         8.941217   -5.426156   -3.880618 C.ar        1 UNL1     0.1347
     28 C         9.245921   -4.141264   -3.467993 C.ar        1 UNL1     0.0342
     29 C         8.19875   -3.480625   -2.791122 C.ar        1 UNL1     0.1435
     30 C         6.942287   -4.05559   -2.596352 C.ar        1 UNL1     0.0774
     31 O         8.303299   -2.184366   -2.425352 O.3        1 UNL1     -0.4436
     32 C         6.948676   -1.754135   -2.223435 C.3        1 UNL1     0.3143
     33 C         6.168264   -3.021994   -1.941117 C.2        1 UNL1     0.2504
     34 C         10.488638   -3.372901   -3.822074 C.3        1 UNL1     -0.0327
     35 O         6.924343   -0.973086   -1.022343 O.2        1 UNL1     -0.4528
     36 C         4.131193   1.555787   -1.481911 C.3        1 UNL1     0.0854
     37 C         2.603366   1.308583   -1.785486 C.3        1 UNL1     0.0236
     38 C         1.589132   1.987452   -0.745192 C.3        1 UNL1     0.1131
     39 C         1.788614   1.760734   0.807572 C.3        1 UNL1     0.0200
     40 C         2.152245   0.244478   1.400175 C.3        1 UNL1     0.0661
     41 C         1.329426   -1.191486   1.027904 C.3        1 UNL1     0.0091
     42 C         1.943123   -2.915467   0.898793 C.3        1 UNL1     0.0661
     43 C         7.371566   -7.32988   -4.304508 C.2        1 UNL1     0.2131
     44 O         8.029917   -7.849424   -5.187336 O.2        1 UNL1     -0.2851
     45 O         9.932613   -6.200607   -4.479614 O.3        1 UNL1     -0.5056
     46 O         5.149147   -3.152685   -1.300668 O.2        1 UNL1     -0.2836
     47 C         3.423373   -4.151543   2.742374 C.3        1 UNL1     -0.0566
     48 O         0.846597   -3.487847   1.716795 O.3        1 UNL1     -0.3909
     49 C         0.441607   -0.948144   -0.17212 C.3        1 UNL1     -0.0577
     50 O         3.54767   0.020507   1.381526 O.3        1 UNL1     -0.3910
     51 O         4.421383   2.185149   -0.254261 O.3        1 UNL1     -0.3753
     52 C         2.351798   -0.113985   -2.383787 C.3        1 UNL1     -0.0564
     53 O         0.171849   2.040678   -1.235907 O.3        1 UNL1     -0.4608
     54 C         -0.94341   1.821555   -0.470327 C.2        1 UNL1     0.3042
     55 O         -1.637455   0.806223   -0.435104 O.2        1 UNL1     -0.2512
     56 C         -1.275343   2.962249   0.449103 C.3        1 UNL1     0.0332
     57 C         2.624163   3.001934   1.372776 C.3        1 UNL1     -0.0567
     58 C         6.47159   -1.164298   -3.57103 C.3        1 UNL1     0.0210
     59 C         5.469063   1.575873   0.498744 C.3        1 UNL1     0.0372
     60 C         4.991353   0.343476   -1.556649 C.2        1 UNL1     -0.0208
     61 C         5.950327   -0.087954   -0.736295 C.2        1 UNL1     0.0882
     62 H         3.949009   -3.688181   0.719178 H        1 UNL1     0.0365
     63 H         4.906035   -5.389829   0.120244 H        1 UNL1     0.0576
     64 H         3.246956   -7.896833   0.797862 H        1 UNL1     0.0615
     65 H         5.932901   -7.475864   -0.740432 H        1 UNL1     0.0622
     66 H         4.470293   2.216275   -2.292351 H        1 UNL1     0.0645
     67 H         2.411897   1.90097   -2.697066 H        1 UNL1     0.0362
     68 H         1.829891   3.047399   -0.918599 H        1 UNL1     0.0741
     69 H         0.863511   1.998306   1.315658 H        1 UNL1     0.0359
     70 H         1.910495   0.39476   2.46977 H        1 UNL1     0.0600
     71 H         0.585702   -1.206437   1.84864 H        1 UNL1     0.0348
     72 H         2.694989   -2.369151   1.48663 H        1 UNL1     0.0602
     73 H         4.832246   -0.14077   -2.488014 H        1 UNL1     0.0628
     74 H         6.138238   0.316067   0.259041 H        1 UNL1     0.1022
     75 H         5.569553   -11.61926   -0.858497 H        1 UNL1     0.0279
     76 H         3.935144   -11.130189   -0.651572 H        1 UNL1     0.0279
     77 H         4.709961   -11.210845   -2.285112 H        1 UNL1     0.0279
     78 H         5.061003   -9.567071   -3.638603 H        1 UNL1     0.1553
     79 H         3.509865   -8.469545   -3.076791 H        1 UNL1     0.1484
     80 H         1.844837   -5.194363   -4.046512 H        1 UNL1     0.0317
     81 H         3.249518   -5.832381   -4.888967 H        1 UNL1     0.0317
     82 H         2.349467   -8.169394   -4.740714 H        1 UNL1     0.0428
     83 H         1.249169   -7.070436   -5.542796 H        1 UNL1     0.0428
     84 H         0.421535   -7.953541   -1.463791 H        1 UNL1     0.0428
     85 H         1.791407   -8.746809   -2.158989 H        1 UNL1     0.0428
     86 H         2.241481   -6.728381   -0.763198 H        1 UNL1     0.0317
     87 H         1.330264   -5.703739   -1.774208 H        1 UNL1     0.0317
     88 H         -1.218788   -8.389146   -3.424093 H        1 UNL1     0.0429
     89 H         -0.578678   -8.362449   -5.069019 H        1 UNL1     0.0429
     90 H         0.859837   -10.249981   -4.627914 H        1 UNL1     0.0308
     91 H         1.362957   -11.125224   -2.36466 H        1 UNL1     0.0233
     92 H         1.759454   -9.388776   -2.419728 H        1 UNL1     0.0233
     93 H         0.308385   -9.937014   -1.608288 H        1 UNL1     0.0233
     94 H         -0.635378   -11.968803   -3.703399 H        1 UNL1     0.0233
     95 H         -1.724982   -10.698565   -3.12583 H        1 UNL1     0.0233
     96 H         -1.458115   -10.914185   -4.87119 H        1 UNL1     0.0233
     97 H         11.286283   -4.024413   -4.166349 H        1 UNL1     0.0280
     98 H         10.314325   -2.655867   -4.634929 H        1 UNL1     0.0280
     99 H         10.848473   -2.824546   -2.936117 H        1 UNL1     0.0280
     100 H         10.741489   -6.240295   -4.000272 H        1 UNL1     0.2922
     101 H         3.191346   -5.092974   3.239896 H        1 UNL1     0.0236
     102 H         2.889306   -3.31198   3.186096 H        1 UNL1     0.0236
     103 H         4.484675   -3.965125   2.977062 H        1 UNL1     0.0236
     104 H         0.206227   -2.77137   1.894439 H        1 UNL1     0.2098
     105 H         0.971111   -0.901345   -1.120406 H        1 UNL1     0.0234
     106 H         -0.413426   -1.619591   -0.249615 H        1 UNL1     0.0234
     107 H         -0.0   0.0   0.0 H        1 UNL1     0.0234
     108 H         3.689676   -0.936528   1.514522 H        1 UNL1     0.2098
     109 H         1.328899   -0.22835   -2.768896 H        1 UNL1     0.0234
     110 H         3.069934   -0.38549   -3.16501 H        1 UNL1     0.0234
     111 H         2.473536   -0.899177   -1.625764 H        1 UNL1     0.0234
     112 H         -1.179993   3.911726   -0.086386 H        1 UNL1     0.0342
     113 H         -2.266479   2.859195   0.888276 H        1 UNL1     0.0342
     114 H         -0.545799   2.964199   1.270642 H        1 UNL1     0.0342
     115 H         2.325308   3.262817   2.39738 H        1 UNL1     0.0234
     116 H         3.704674   2.84529   1.375712 H        1 UNL1     0.0234
     117 H         2.418664   3.94822   0.843385 H        1 UNL1     0.0234
     118 H         6.641498   -1.859906   -4.411426 H        1 UNL1     0.0309
     119 H         5.418528   -0.865713   -3.560554 H        1 UNL1     0.0309
     120 H         7.036753   -0.272465   -3.863144 H        1 UNL1     0.0309
     121 H         5.323257   1.845418   1.544422 H        1 UNL1     0.0524
     122 H         5.445873   0.475322   0.43327 H        1 UNL1     0.0524
     123 H         6.435883   1.929423   0.151821 H        1 UNL1     0.0524
@<TRIPOS>BOND
     1     1     2    1
     2     1    42    1
     3     2     3    2
     4     3     4    1
     5     4     5    2
     6     5     7    1
     7     6    75    1
     8     6    76    1
     9     6    77    1
    10     7     9   am
    11     9    10    1
    12    10    11    2
    13    10    43    1
    14    11    14    1
    15    11    15    1
    16    12    13   ar
    17    12    27   ar
    18    12    43    1
    19    13    14    1
    20    13    30   ar
    21    14    17    2
    22    15    16    1
    23    16    17    1
    24    16    18    1
    25    16    22    1
    26    18    19    1
    27    19    20    1
    28    20    21    1
    29    21    22    1
    30    23    24    1
    31    23    88    1
    32    23    89    1
    33    24    25    1
    34    24    26    1
    35    24    90    1
    36    25    91    1
    37    25    92    1
    38    25    93    1
    39    26    94    1
    40    26    95    1
    41    26    96    1
    42    27    28   ar
    43    28    29   ar
    44    29    30   ar
    45    29    31    1
    46    30    33    1
    47    31    32    1
    48    32    33    1
    49    32    35    1
    50    34    97    1
    51    34    98    1
    52    34    99    1
    53    35    61    1
    54    36    37    1
    55    36    60    1
    56    37    38    1
    57    38    39    1
    58    39    40    1
    59    40    41    1
    60    41    42    1
    61    45   100    1
    62    47   101    1
    63    47   102    1
    64    47   103    1
    65    48   104    1
    66    49   105    1
    67    49   106    1
    68    49   107    1
    69    50   108    1
    70    51    59    1
    71    52   109    1
    72    52   110    1
    73    52   111    1
    74    53    54    1
    75    54    55    2
    76    54    56    1
    77    56   112    1
    78    56   113    1
    79    56   114    1
    80    57   115    1
    81    57   116    1
    82    57   117    1
    83    58   118    1
    84    58   119    1
    85    58   120    1
    86    59   121    1
    87    59   122    1
    88    59   123    1
    89    60    61    2
    90     1    47    1
    91     1    62    1
    92     2    63    1
    93     3    64    1
    94     4    65    1
    95     5     6    1
    96     7     8    2
    97     9    78    1
    98    15    79    1
    99    18    80    1
   100    18    81    1
   101    19    82    1
   102    19    83    1
   103    20    23    1
   104    21    84    1
   105    21    85    1
   106    22    86    1
   107    22    87    1
   108    27    45    1
   109    28    34    1
   110    32    58    1
   111    33    46    2
   112    36    51    1
   113    36    66    1
   114    37    52    1
   115    37    67    1
   116    38    53    1
   117    38    68    1
   118    42    48    1
   119    42    72    1
   120    43    44    2
   121    60    73    1
   122    61    74    1
   123    39    69    1
   124    39    57    1
   125    40    70    1
   126    40    50    1
   127    41    71    1
   128    41    49    1
