@<TRIPOS>MOLECULE
*****
 123 128 0 0 0
SMALL
GASTEIGER

@<TRIPOS>ATOM
     1 C         3.190199   -2.63017   -0.935863 C.3        1 UNL1     0.0009
     2 C         4.920297   -2.180283   -1.427185 C.2        1 UNL1     -0.0787
     3 C         5.94476   -2.052395   -2.442156 C.2        1 UNL1     -0.0649
     4 C         7.494896   -1.391583   -2.278563 C.2        1 UNL1     -0.0542
     5 C         8.598015   -0.833384   -2.970386 C.2        1 UNL1     0.0115
     6 C         9.206041   -0.592048   -4.379423 C.3        1 UNL1     -0.0348
     7 C         9.676347   0.026012   -2.14842 C.2        1 UNL1     0.2441
     8 O         10.767199   -0.417191   -1.816548 O.2        1 UNL1     -0.2702
     9 N         9.392368   1.400086   -2.062246 N.am        1 UNL1     -0.2772
     10 C         8.596127   1.658312   -0.970165 C.2        1 UNL1     0.1049
     11 C         7.299941   1.467627   -1.136787 C.2        1 UNL1     0.0801
     12 C         8.385995   1.210095   1.481831 C.ar        1 UNL1     0.0753
     13 C         7.037695   0.811548   1.213772 C.ar        1 UNL1     0.0305
     14 C         6.412171   1.053031   -0.08448 C.2        1 UNL1     0.0924
     15 N         6.594883   1.260912   -2.26226 N.pl3        1 UNL1     -0.3170
     16 C         5.198367   1.286031   -1.916768 C.3        1 UNL1     0.1275
     17 N         5.15795   0.843698   -0.474398 N.2        1 UNL1     -0.2557
     18 C         4.756885   2.74642   -1.924383 C.3        1 UNL1     0.0016
     19 C         5.077877   3.344436   -3.284872 C.3        1 UNL1     0.0026
     20 N         4.378448   2.580275   -4.308534 N.3        1 UNL1     -0.3018
     21 C         4.691583   1.150113   -4.339403 C.3        1 UNL1     0.0026
     22 C         4.357226   0.568917   -2.964517 C.3        1 UNL1     0.0016
     23 C         4.373191   3.239433   -5.599319 C.3        1 UNL1     0.0012
     24 C         3.46678   4.480047   -5.566875 C.3        1 UNL1     -0.0339
     25 C         4.192876   5.691261   -4.958761 C.3        1 UNL1     -0.0615
     26 C         2.94737   4.782148   -6.961769 C.3        1 UNL1     -0.0615
     27 C         8.935361   1.086682   2.755834 C.ar        1 UNL1     0.1347
     28 C         8.224217   0.617678   3.845953 C.ar        1 UNL1     0.0342
     29 C         6.914429   0.185572   3.547782 C.ar        1 UNL1     0.1435
     30 C         6.362724   0.269468   2.268797 C.ar        1 UNL1     0.0774
     31 O         6.058694   -0.194049   4.521749 O.3        1 UNL1     -0.4436
     32 C         4.758635   -0.095604   3.920894 C.3        1 UNL1     0.3143
     33 C         5.002692   -0.201056   2.429074 C.2        1 UNL1     0.2504
     34 C         8.661589   0.692278   5.282351 C.3        1 UNL1     -0.0327
     35 O         4.02166   -1.262385   4.306567 O.2        1 UNL1     -0.4528
     36 C         0.377774   -0.204392   4.410671 C.3        1 UNL1     0.0854
     37 C         -0.50993   0.425075   3.26906 C.3        1 UNL1     0.0236
     38 C         -1.866869   -0.368887   2.952701 C.3        1 UNL1     0.1131
     39 C         -1.820964   -1.927802   2.688227 C.3        1 UNL1     0.0200
     40 C         -0.633907   -2.585621   1.718378 C.3        1 UNL1     0.0661
     41 C         -0.201689   -2.043012   0.170356 C.3        1 UNL1     0.0091
     42 C         1.422177   -2.051056   -0.683106 C.3        1 UNL1     0.0661
     43 C         9.151451   1.842501   0.378925 C.2        1 UNL1     0.2131
     44 O         10.118838   2.560426   0.556363 O.2        1 UNL1     -0.2851
     45 O         10.268888   1.45494   2.921761 O.3        1 UNL1     -0.5056
     46 O         4.251475   -0.603826   1.569247 O.2        1 UNL1     -0.2836
     47 C         3.024938   -4.173244   -0.895924 C.3        1 UNL1     -0.0566
     48 O         0.883594   -2.610271   -1.946563 O.3        1 UNL1     -0.3909
     49 C         -0.812676   -0.678213   -0.056609 C.3        1 UNL1     -0.0577
     50 O         0.527247   -2.871796   2.471736 O.3        1 UNL1     -0.3910
     51 O         -0.034352   -1.465708   4.886765 O.3        1 UNL1     -0.3753
     52 C         0.362185   1.063678   2.139214 C.3        1 UNL1     -0.0564
     53 O         -2.846696   0.419137   2.133381 O.3        1 UNL1     -0.4608
     54 C         -3.657124   -0.092584   1.153954 C.2        1 UNL1     0.3042
     55 O         -3.32988   -0.824266   0.220471 O.2        1 UNL1     -0.2512
     56 C         -5.105485   0.268941   1.32207 C.3        1 UNL1     0.0332
     57 C         -2.144091   -2.661497   4.072227 C.3        1 UNL1     -0.0567
     58 C         4.23487   1.323669   4.241618 C.3        1 UNL1     0.0210
     59 C         -0.607453   -1.455182   6.193406 C.3        1 UNL1     0.0372
     60 C         1.826531   -0.319196   4.089604 C.2        1 UNL1     -0.0208
     61 C         2.676731   -1.329007   4.279833 C.2        1 UNL1     0.0882
     62 H         3.41926   -2.313348   0.088767 H        1 UNL1     0.0365
     63 H         5.351813   -1.937759   -0.453816 H        1 UNL1     0.0576
     64 H         5.731435   -2.237492   -3.497305 H        1 UNL1     0.0615
     65 H         7.635671   -1.322005   -1.196516 H        1 UNL1     0.0622
     66 H         0.309019   0.512652   5.240832 H        1 UNL1     0.0645
     67 H         -0.899589   1.356536   3.715272 H        1 UNL1     0.0362
     68 H         -2.378228   -0.252047   3.920369 H        1 UNL1     0.0741
     69 H         -2.730722   -2.221859   2.181986 H        1 UNL1     0.0359
     70 H         -1.082218   -3.576721   1.513934 H        1 UNL1     0.0600
     71 H         -0.861061   -2.681781   -0.449452 H        1 UNL1     0.0348
     72 H         1.502524   -2.788665   0.128554 H        1 UNL1     0.0602
     73 H         2.187827   0.624393   3.763486 H        1 UNL1     0.0628
     74 H         2.379881   -2.34132   4.556133 H        1 UNL1     0.1022
     75 H         9.169318   -1.527798   -4.987747 H        1 UNL1     0.0279
     76 H         8.687544   0.121567   -5.015806 H        1 UNL1     0.0279
     77 H         10.28788   -0.396263   -4.347919 H        1 UNL1     0.0279
     78 H         8.881075   1.696322   -2.891042 H        1 UNL1     0.1553
     79 H         6.932062   1.486473   -3.180065 H        1 UNL1     0.1484
     80 H         3.682849   2.79637   -1.708237 H        1 UNL1     0.0317
     81 H         5.262255   3.312102   -1.134284 H        1 UNL1     0.0317
     82 H         6.160946   3.36346   -3.475954 H        1 UNL1     0.0428
     83 H         4.756628   4.386338   -3.267832 H        1 UNL1     0.0428
     84 H         4.094829   0.585946   -5.062875 H        1 UNL1     0.0428
     85 H         5.729791   0.965541   -4.64823 H        1 UNL1     0.0428
     86 H         4.471339   -0.494583   -3.064188 H        1 UNL1     0.0317
     87 H         3.28726   0.690946   -2.75624 H        1 UNL1     0.0317
     88 H         5.398718   3.561605   -5.822464 H        1 UNL1     0.0429
     89 H         4.071799   2.549601   -6.398112 H        1 UNL1     0.0429
     90 H         2.58122   4.262064   -4.958205 H        1 UNL1     0.0308
     91 H         5.215673   5.773658   -5.338496 H        1 UNL1     0.0233
     92 H         3.653215   6.615444   -5.178445 H        1 UNL1     0.0233
     93 H         4.263183   5.630595   -3.865961 H        1 UNL1     0.0233
     94 H         3.316486   5.756612   -7.299421 H        1 UNL1     0.0233
     95 H         3.303601   4.024484   -7.665336 H        1 UNL1     0.0233
     96 H         1.854162   4.799608   -6.985409 H        1 UNL1     0.0233
     97 H         7.954302   1.242665   5.895579 H        1 UNL1     0.0280
     98 H         8.747327   -0.301484   5.74098 H        1 UNL1     0.0280
     99 H         9.639314   1.197519   5.34465 H        1 UNL1     0.0280
     100 H         10.858337   1.088056   2.286491 H        1 UNL1     0.2922
     101 H         3.012872   -4.51506   0.138809 H        1 UNL1     0.0236
     102 H         3.769705   -4.699673   -1.491892 H        1 UNL1     0.0236
     103 H         2.054836   -4.496672   -1.308829 H        1 UNL1     0.0236
     104 H         -0.089479   -2.643888   -1.863077 H        1 UNL1     0.2098
     105 H         -1.283518   -0.552917   -1.028422 H        1 UNL1     0.0234
     106 H         -1.483274   -0.342281   0.734197 H        1 UNL1     0.0234
     107 H         0.0   0.0   0.0 H        1 UNL1     0.0234
     108 H         1.172244   -3.284041   1.865268 H        1 UNL1     0.2098
     109 H         0.999444   1.87642   2.514797 H        1 UNL1     0.0234
     110 H         0.978128   0.331947   1.605429 H        1 UNL1     0.0234
     111 H         -0.259395   1.512476   1.352979 H        1 UNL1     0.0234
     112 H         -5.707155   -0.639927   1.418496 H        1 UNL1     0.0342
     113 H         -5.265719   0.935199   2.168397 H        1 UNL1     0.0342
     114 H         -5.434845   0.796334   0.416232 H        1 UNL1     0.0342
     115 H         -2.704826   -3.593855   3.919016 H        1 UNL1     0.0234
     116 H         -1.258787   -2.904121   4.663345 H        1 UNL1     0.0234
     117 H         -2.840092   -2.097744   4.71698 H        1 UNL1     0.0234
     118 H         3.395389   1.303627   4.958469 H        1 UNL1     0.0309
     119 H         5.013368   1.993494   4.620404 H        1 UNL1     0.0309
     120 H         3.80653   1.821727   3.364937 H        1 UNL1     0.0309
     121 H         0.030934   -2.058464   6.838286 H        1 UNL1     0.0524
     122 H         -0.64982   -0.440658   6.623503 H        1 UNL1     0.0524
     123 H         -1.611487   -1.869066   6.166787 H        1 UNL1     0.0524
@<TRIPOS>BOND
     1     1     2    1
     2     1    42    1
     3     2     3    2
     4     3     4    1
     5     4     5    2
     6     5     7    1
     7     6    75    1
     8     6    76    1
     9     6    77    1
    10     7     9   am
    11     9    10    1
    12    10    11    2
    13    10    43    1
    14    11    14    1
    15    11    15    1
    16    12    13   ar
    17    12    27   ar
    18    12    43    1
    19    13    14    1
    20    13    30   ar
    21    14    17    2
    22    15    16    1
    23    16    17    1
    24    16    18    1
    25    16    22    1
    26    18    19    1
    27    19    20    1
    28    20    21    1
    29    21    22    1
    30    23    24    1
    31    23    88    1
    32    23    89    1
    33    24    25    1
    34    24    26    1
    35    24    90    1
    36    25    91    1
    37    25    92    1
    38    25    93    1
    39    26    94    1
    40    26    95    1
    41    26    96    1
    42    27    28   ar
    43    28    29   ar
    44    29    30   ar
    45    29    31    1
    46    30    33    1
    47    31    32    1
    48    32    33    1
    49    32    35    1
    50    34    97    1
    51    34    98    1
    52    34    99    1
    53    35    61    1
    54    36    37    1
    55    36    60    1
    56    37    38    1
    57    38    39    1
    58    39    40    1
    59    40    41    1
    60    41    42    1
    61    45   100    1
    62    47   101    1
    63    47   102    1
    64    47   103    1
    65    48   104    1
    66    49   105    1
    67    49   106    1
    68    49   107    1
    69    50   108    1
    70    51    59    1
    71    52   109    1
    72    52   110    1
    73    52   111    1
    74    53    54    1
    75    54    55    2
    76    54    56    1
    77    56   112    1
    78    56   113    1
    79    56   114    1
    80    57   115    1
    81    57   116    1
    82    57   117    1
    83    58   118    1
    84    58   119    1
    85    58   120    1
    86    59   121    1
    87    59   122    1
    88    59   123    1
    89    60    61    2
    90     1    47    1
    91     1    62    1
    92     2    63    1
    93     3    64    1
    94     4    65    1
    95     5     6    1
    96     7     8    2
    97     9    78    1
    98    15    79    1
    99    18    80    1
   100    18    81    1
   101    19    82    1
   102    19    83    1
   103    20    23    1
   104    21    84    1
   105    21    85    1
   106    22    86    1
   107    22    87    1
   108    27    45    1
   109    28    34    1
   110    32    58    1
   111    33    46    2
   112    36    51    1
   113    36    66    1
   114    37    52    1
   115    37    67    1
   116    38    53    1
   117    38    68    1
   118    42    48    1
   119    42    72    1
   120    43    44    2
   121    60    73    1
   122    61    74    1
   123    39    69    1
   124    39    57    1
   125    40    70    1
   126    40    50    1
   127    41    71    1
   128    41    49    1
