@<TRIPOS>MOLECULE
*****
 123 128 0 0 0
SMALL
GASTEIGER

@<TRIPOS>ATOM
     1 C         2.790315   2.530754   -3.690548 C.3        1 UNL1     0.0009
     2 C         3.609898   2.225243   -5.325168 C.2        1 UNL1     -0.0787
     3 C         4.808879   2.133553   -6.131446 C.2        1 UNL1     -0.0649
     4 C         4.941704   1.644245   -7.746776 C.2        1 UNL1     -0.0542
     5 C         5.822075   1.154837   -8.743022 C.2        1 UNL1     0.0115
     6 C         7.314512   0.882402   -9.077289 C.3        1 UNL1     -0.0348
     7 C         5.204663   0.464887   -10.054418 C.2        1 UNL1     0.2441
     8 O         5.126846   1.036605   -11.133125 O.2        1 UNL1     -0.2702
     9 N         5.000154   -0.921948   -9.949467 N.am        1 UNL1     -0.2772
     10 C         3.756033   -1.185477   -9.424075 C.2        1 UNL1     0.1049
     11 C         3.657975   -1.137548   -8.107903 C.2        1 UNL1     0.0801
     12 C         1.336389   -0.598139   -9.664266 C.ar        1 UNL1     0.0753
     13 C         1.335891   -0.355864   -8.253624 C.ar        1 UNL1     0.0305
     14 C         2.463707   -0.745016   -7.410035 C.2        1 UNL1     0.0924
     15 N         4.620423   -1.078244   -7.171577 N.pl3        1 UNL1     -0.3170
     16 C         3.991477   -1.220475   -5.885322 C.3        1 UNL1     0.1275
     17 N         2.593397   -0.689248   -6.087538 N.2        1 UNL1     -0.2557
     18 C         3.842031   -2.715077   -5.617866 C.3        1 UNL1     0.0016
     19 C         5.211468   -3.367195   -5.722618 C.3        1 UNL1     0.0026
     20 N         6.100465   -2.747158   -4.749855 N.3        1 UNL1     -0.3018
     21 C         6.259494   -1.298027   -4.88805 C.3        1 UNL1     0.0026
     22 C         4.872461   -0.662989   -4.775085 C.3        1 UNL1     0.0016
     23 C         7.331262   -3.488109   -4.558087 C.3        1 UNL1     0.0012
     24 C         8.385316   -3.05797   -5.590418 C.3        1 UNL1     -0.0339
     25 C         9.281747   -4.236878   -6.003509 C.3        1 UNL1     -0.0615
     26 C         7.708185   -2.422643   -6.792347 C.3        1 UNL1     -0.0615
     27 C         0.211173   -0.335465   -10.44209 C.ar        1 UNL1     0.1347
     28 C         -0.980908   0.131348   -9.917613 C.ar        1 UNL1     0.0342
     29 C         -0.942482   0.408798   -8.534605 C.ar        1 UNL1     0.1435
     30 C         0.188878   0.184785   -7.749071 C.ar        1 UNL1     0.0774
     31 O         -2.055103   0.764604   -7.856016 O.3        1 UNL1     -0.4436
     32 C         -1.742551   0.496169   -6.480833 C.3        1 UNL1     0.3143
     33 C         -0.229396   0.525895   -6.405398 C.2        1 UNL1     0.2504
     34 C         -2.296915   0.197029   -10.641431 C.3        1 UNL1     -0.0327
     35 O         -2.22053   1.606093   -5.710862 O.2        1 UNL1     -0.4528
     36 C         -3.126727   0.196595   -2.304954 C.3        1 UNL1     0.0854
     37 C         -2.223763   -0.593609   -1.281354 C.3        1 UNL1     0.0236
     38 C         -2.161224   0.037104   0.191749 C.3        1 UNL1     0.1131
     39 C         -1.823723   1.571617   0.37514 C.3        1 UNL1     0.0200
     40 C         -0.599998   2.279246   -0.510409 C.3        1 UNL1     0.0661
     41 C         0.978274   1.680802   -0.679325 C.3        1 UNL1     0.0091
     42 C         2.150069   1.795055   -2.086181 C.3        1 UNL1     0.0661
     43 C         2.544965   -1.222555   -10.257317 C.2        1 UNL1     0.2131
     44 O         2.540605   -1.826196   -11.314831 O.2        1 UNL1     -0.2851
     45 O         0.30975   -0.555965   -11.814351 O.3        1 UNL1     -0.5056
     46 O         0.472627   0.792899   -5.455805 O.2        1 UNL1     -0.2836
     47 C         2.785769   4.048621   -3.364908 C.3        1 UNL1     -0.0566
     48 O         3.297667   2.211814   -1.244488 O.3        1 UNL1     -0.3909
     49 C         1.012203   0.249433   -0.191961 C.3        1 UNL1     -0.0577
     50 O         -1.082062   2.730253   -1.760181 O.3        1 UNL1     -0.3910
     51 O         -3.621334   1.439038   -1.858714 O.3        1 UNL1     -0.3753
     52 C         -0.966974   -1.215257   -1.97344 C.3        1 UNL1     -0.0564
     53 O         -1.599405   -0.898267   1.22217 O.3        1 UNL1     -0.4608
     54 C         -0.787961   -0.537032   2.265721 C.2        1 UNL1     0.3042
     55 O         0.430301   -0.686709   2.351011 O.2        1 UNL1     -0.2512
     56 C         -1.514459   0.165507   3.377184 C.3        1 UNL1     0.0332
     57 C         -3.210526   2.359777   0.492426 C.3        1 UNL1     -0.0567
     58 C         -2.228099   -0.94399   -6.194976 C.3        1 UNL1     0.0210
     59 C         -4.654714   1.998455   -2.668062 C.3        1 UNL1     0.0372
     60 C         -2.506791   0.434735   -3.636919 C.2        1 UNL1     -0.0208
     61 C         -2.470942   1.535296   -4.389398 C.2        1 UNL1     0.0882
     62 H         1.822572   2.30759   -4.155718 H        1 UNL1     0.0365
     63 H         2.737634   2.09276   -5.968654 H        1 UNL1     0.0576
     64 H         5.803839   2.2255   -5.690188 H        1 UNL1     0.0615
     65 H         3.910536   1.661477   -8.109928 H        1 UNL1     0.0622
     66 H         -3.984189   -0.466765   -2.485948 H        1 UNL1     0.0645
     67 H         -2.782305   -1.527672   -1.096647 H        1 UNL1     0.0362
     68 H         -3.218264   -0.065742   0.480906 H        1 UNL1     0.0741
     69 H         -1.505003   1.738348   1.395447 H        1 UNL1     0.0359
     70 H         -0.449189   3.204429   0.07811 H        1 UNL1     0.0600
     71 H         1.475376   2.207317   0.158905 H        1 UNL1     0.0348
     72 H         1.406553   2.58948   -2.24552 H        1 UNL1     0.0602
     73 H         -2.155127   -0.487408   -4.028368 H        1 UNL1     0.0628
     74 H         -2.757469   2.528815   -4.042899 H        1 UNL1     0.1022
     75 H         7.845337   1.83751   -9.307565 H        1 UNL1     0.0279
     76 H         7.922009   0.463539   -8.278184 H        1 UNL1     0.0279
     77 H         7.445302   0.329219   -10.018875 H        1 UNL1     0.0279
     78 H         5.690539   -1.322669   -9.317907 H        1 UNL1     0.1553
     79 H         5.577268   -1.329479   -7.339688 H        1 UNL1     0.1484
     80 H         3.405388   -2.858177   -4.622059 H        1 UNL1     0.0317
     81 H         3.149784   -3.173158   -6.332433 H        1 UNL1     0.0317
     82 H         5.622423   -3.289985   -6.74 H        1 UNL1     0.0428
     83 H         5.081584   -4.432637   -5.530231 H        1 UNL1     0.0428
     84 H         6.867578   -0.84619   -4.098185 H        1 UNL1     0.0428
     85 H         6.78526   -1.031068   -5.815207 H        1 UNL1     0.0428
     86 H         5.041004   0.397568   -4.746834 H        1 UNL1     0.0317
     87 H         4.441137   -0.877758   -3.789727 H        1 UNL1     0.0317
     88 H         7.713023   -3.26212   -3.553855 H        1 UNL1     0.0429
     89 H         7.155463   -4.57078   -4.599212 H        1 UNL1     0.0429
     90 H         9.016974   -2.275173   -5.15401 H        1 UNL1     0.0308
     91 H         8.688948   -5.130972   -6.218655 H        1 UNL1     0.0233
     92 H         9.87615   -3.980339   -6.883555 H        1 UNL1     0.0233
     93 H         9.998325   -4.511254   -5.219883 H        1 UNL1     0.0233
     94 H         8.367454   -2.469574   -7.665844 H        1 UNL1     0.0233
     95 H         6.789696   -2.964945   -7.033694 H        1 UNL1     0.0233
     96 H         7.459867   -1.374621   -6.602729 H        1 UNL1     0.0233
     97 H         -2.300898   0.963236   -11.410939 H        1 UNL1     0.0280
     98 H         -2.534998   -0.744429   -11.153515 H        1 UNL1     0.0280
     99 H         -3.102014   0.424072   -9.923544 H        1 UNL1     0.0280
     100 H         0.09979   -1.432117   -12.086191 H        1 UNL1     0.2922
     101 H         1.787488   4.45579   -3.523981 H        1 UNL1     0.0236
     102 H         3.546564   4.606262   -3.910078 H        1 UNL1     0.0236
     103 H         3.001768   4.244656   -2.301372 H        1 UNL1     0.0236
     104 H         3.015362   2.15297   -0.31078 H        1 UNL1     0.2098
     105 H         1.398675   -0.462725   -0.916724 H        1 UNL1     0.0234
     106 H         1.499052   0.108342   0.772922 H        1 UNL1     0.0234
     107 H         0.0   0.0   0.0 H        1 UNL1     0.0234
     108 H         -1.217828   1.941899   -2.320389 H        1 UNL1     0.2098
     109 H         -0.963344   -2.312944   -1.920696 H        1 UNL1     0.0234
     110 H         -0.848225   -0.898078   -3.015092 H        1 UNL1     0.0234
     111 H         -0.036318   -0.891314   -1.488788 H        1 UNL1     0.0234
     112 H         -0.808575   0.444012   4.165543 H        1 UNL1     0.0342
     113 H         -2.065437   1.034711   3.02116 H        1 UNL1     0.0342
     114 H         -2.241821   -0.53581   3.808767 H        1 UNL1     0.0342
     115 H         -3.996455   1.738538   0.943609 H        1 UNL1     0.0234
     116 H         -3.148764   3.283135   1.071774 H        1 UNL1     0.0234
     117 H         -3.663747   2.600434   -0.484619 H        1 UNL1     0.0234
     118 H         -1.54578   -1.484405   -5.515713 H        1 UNL1     0.0309
     119 H         -3.24339   -0.982171   -5.787632 H        1 UNL1     0.0309
     120 H         -2.238189   -1.570352   -7.093684 H        1 UNL1     0.0309
     121 H         -4.631004   3.07938   -2.532434 H        1 UNL1     0.0524
     122 H         -4.502067   1.795094   -3.741085 H        1 UNL1     0.0524
     123 H         -5.621654   1.604225   -2.368557 H        1 UNL1     0.0524
@<TRIPOS>BOND
     1     1     2    1
     2     1    42    1
     3     2     3    2
     4     3     4    1
     5     4     5    2
     6     5     7    1
     7     6    75    1
     8     6    76    1
     9     6    77    1
    10     7     9   am
    11     9    10    1
    12    10    11    2
    13    10    43    1
    14    11    14    1
    15    11    15    1
    16    12    13   ar
    17    12    27   ar
    18    12    43    1
    19    13    14    1
    20    13    30   ar
    21    14    17    2
    22    15    16    1
    23    16    17    1
    24    16    18    1
    25    16    22    1
    26    18    19    1
    27    19    20    1
    28    20    21    1
    29    21    22    1
    30    23    24    1
    31    23    88    1
    32    23    89    1
    33    24    25    1
    34    24    26    1
    35    24    90    1
    36    25    91    1
    37    25    92    1
    38    25    93    1
    39    26    94    1
    40    26    95    1
    41    26    96    1
    42    27    28   ar
    43    28    29   ar
    44    29    30   ar
    45    29    31    1
    46    30    33    1
    47    31    32    1
    48    32    33    1
    49    32    35    1
    50    34    97    1
    51    34    98    1
    52    34    99    1
    53    35    61    1
    54    36    37    1
    55    36    60    1
    56    37    38    1
    57    38    39    1
    58    39    40    1
    59    40    41    1
    60    41    42    1
    61    45   100    1
    62    47   101    1
    63    47   102    1
    64    47   103    1
    65    48   104    1
    66    49   105    1
    67    49   106    1
    68    49   107    1
    69    50   108    1
    70    51    59    1
    71    52   109    1
    72    52   110    1
    73    52   111    1
    74    53    54    1
    75    54    55    2
    76    54    56    1
    77    56   112    1
    78    56   113    1
    79    56   114    1
    80    57   115    1
    81    57   116    1
    82    57   117    1
    83    58   118    1
    84    58   119    1
    85    58   120    1
    86    59   121    1
    87    59   122    1
    88    59   123    1
    89    60    61    2
    90     1    47    1
    91     1    62    1
    92     2    63    1
    93     3    64    1
    94     4    65    1
    95     5     6    1
    96     7     8    2
    97     9    78    1
    98    15    79    1
    99    18    80    1
   100    18    81    1
   101    19    82    1
   102    19    83    1
   103    20    23    1
   104    21    84    1
   105    21    85    1
   106    22    86    1
   107    22    87    1
   108    27    45    1
   109    28    34    1
   110    32    58    1
   111    33    46    2
   112    36    51    1
   113    36    66    1
   114    37    52    1
   115    37    67    1
   116    38    53    1
   117    38    68    1
   118    42    48    1
   119    42    72    1
   120    43    44    2
   121    60    73    1
   122    61    74    1
   123    39    69    1
   124    39    57    1
   125    40    70    1
   126    40    50    1
   127    41    71    1
   128    41    49    1
