@<TRIPOS>MOLECULE
*****
 123 128 0 0 0
SMALL
GASTEIGER

@<TRIPOS>ATOM
     1 C         2.615796   1.112815   -4.678713 C.3        1 UNL1     0.0009
     2 C         2.801344   0.692964   -6.474913 C.2        1 UNL1     -0.0787
     3 C         3.512605   0.018038   -7.540102 C.2        1 UNL1     -0.0649
     4 C         3.07586   -0.09946   -9.171606 C.2        1 UNL1     -0.0542
     5 C         3.263325   -0.824148   -10.37442 C.2        1 UNL1     0.0115
     6 C         4.127334   -1.917412   -11.06114 C.3        1 UNL1     -0.0348
     7 C         2.182776   -0.668855   -11.551403 C.2        1 UNL1     0.2441
     8 O         2.372984   0.022795   -12.542345 O.2        1 UNL1     -0.2702
     9 N         1.115422   -1.581959   -11.495287 N.am        1 UNL1     -0.2772
     10 C         0.096986   -1.082884   -10.716164 C.2        1 UNL1     0.1049
     11 C         0.224699   -1.252508   -9.412654 C.2        1 UNL1     0.0801
     12 C         -1.305291   0.956374   -10.352317 C.ar        1 UNL1     0.0753
     13 C         -0.963847   0.848135   -8.966565 C.ar        1 UNL1     0.0305
     14 C         -0.294841   -0.336547   -8.433639 C.2        1 UNL1     0.0924
     15 N         1.08595   -2.018763   -8.721548 N.pl3        1 UNL1     -0.3170
     16 C         0.694628   -1.981003   -7.337461 C.3        1 UNL1     0.1275
     17 N         0.005186   -0.648221   -7.175954 N.2        1 UNL1     -0.2557
     18 C         -0.384276   -3.042157   -7.143499 C.3        1 UNL1     0.0016
     19 C         0.164094   -4.383187   -7.604498 C.3        1 UNL1     0.0026
     20 N         1.352942   -4.695846   -6.823528 N.3        1 UNL1     -0.3018
     21 C         2.424713   -3.70074   -6.897261 C.3        1 UNL1     0.0026
     22 C         1.85307   -2.362664   -6.425379 C.3        1 UNL1     0.0016
     23 C         1.778098   -6.073611   -6.970671 C.3        1 UNL1     0.0012
     24 C         1.182635   -6.943402   -5.852349 C.3        1 UNL1     -0.0339
     25 C         0.923102   -8.379961   -6.335046 C.3        1 UNL1     -0.0615
     26 C         2.08949   -6.918232   -4.634252 C.3        1 UNL1     -0.0615
     27 C         -2.048992   2.032661   -10.830472 C.ar        1 UNL1     0.1347
     28 C         -2.539063   3.037343   -10.015306 C.ar        1 UNL1     0.0342
     29 C         -2.149091   2.935642   -8.662996 C.ar        1 UNL1     0.1435
     30 C         -1.373961   1.882358   -8.176183 C.ar        1 UNL1     0.0774
     31 O         -2.636144   3.775894   -7.723974 O.3        1 UNL1     -0.4436
     32 C         -2.413681   3.096599   -6.479007 C.3        1 UNL1     0.3143
     33 C         -1.279601   2.129512   -6.752533 C.2        1 UNL1     0.2504
     34 C         -3.547477   4.080039   -10.410258 C.3        1 UNL1     -0.0327
     35 O         -1.919407   4.066321   -5.547028 O.2        1 UNL1     -0.4528
     36 C         -3.095092   2.915643   -2.126239 C.3        1 UNL1     0.0854
     37 C         -2.836709   1.54305   -1.393607 C.3        1 UNL1     0.0236
     38 C         -2.180447   1.668148   0.064273 C.3        1 UNL1     0.1131
     39 C         -0.880227   2.545914   0.267311 C.3        1 UNL1     0.0200
     40 C         0.375852   2.461016   -0.82699 C.3        1 UNL1     0.0661
     41 C         1.104565   1.038284   -1.394813 C.3        1 UNL1     0.0091
     42 C         1.858042   0.655142   -3.022964 C.3        1 UNL1     0.0661
     43 C         -0.917732   -0.161246   -11.24841 C.2        1 UNL1     0.2131
     44 O         -1.460581   -0.388456   -12.314444 O.2        1 UNL1     -0.2851
     45 O         -2.299346   2.086039   -12.200111 O.3        1 UNL1     -0.5056
     46 O         -0.467274   1.681385   -5.974612 O.2        1 UNL1     -0.2836
     47 C         3.673217   2.169418   -4.259864 C.3        1 UNL1     -0.0566
     48 O         3.082495   0.052784   -2.442452 O.3        1 UNL1     -0.3909
     49 C         0.229903   -0.138999   -1.025399 C.3        1 UNL1     -0.0577
     50 O         0.16819   3.358557   -1.898913 O.3        1 UNL1     -0.3910
     51 O         -2.565057   4.059786   -1.495818 O.3        1 UNL1     -0.3753
     52 C         -2.424671   0.41662   -2.396767 C.3        1 UNL1     -0.0564
     53 O         -2.267713   0.406564   0.872429 O.3        1 UNL1     -0.4608
     54 C         -3.402708   -0.08045   1.466173 C.2        1 UNL1     0.3042
     55 O         -4.501129   0.46886   1.540796 O.2        1 UNL1     -0.2512
     56 C         -3.243018   -1.466769   2.02235 C.3        1 UNL1     0.0332
     57 C         -1.348317   3.995948   0.753593 C.3        1 UNL1     -0.0567
     58 C         -3.699025   2.288138   -6.186072 C.3        1 UNL1     0.0210
     59 C         -3.411065   4.645652   -0.507437 C.3        1 UNL1     0.0372
     60 C         -2.651738   2.963761   -3.546198 C.2        1 UNL1     -0.0208
     61 C         -1.981971   3.906047   -4.211219 C.2        1 UNL1     0.0882
     62 H         1.70045   1.6656   -4.922192 H        1 UNL1     0.0365
     63 H         1.993956   1.287545   -6.907426 H        1 UNL1     0.0576
     64 H         4.356657   -0.644213   -7.334898 H        1 UNL1     0.0615
     65 H         2.288619   0.650741   -9.285327 H        1 UNL1     0.0622
     66 H         -4.189493   3.014771   -2.148754 H        1 UNL1     0.0645
     67 H         -3.848285   1.175599   -1.148139 H        1 UNL1     0.0362
     68 H         -2.9844   2.213528   0.581712 H        1 UNL1     0.0741
     69 H         -0.40606   2.256036   1.195505 H        1 UNL1     0.0359
     70 H         1.182005   2.926778   -0.228456 H        1 UNL1     0.0600
     71 H         1.927456   0.936188   -0.660386 H        1 UNL1     0.0348
     72 H         1.82861   1.752213   -2.953065 H        1 UNL1     0.0602
     73 H         -3.064045   2.136778   -4.069028 H        1 UNL1     0.0628
     74 H         -1.479887   4.752938   -3.742256 H        1 UNL1     0.1022
     75 H         4.66858   -2.526404   -10.297454 H        1 UNL1     0.0279
     76 H         3.590613   -2.675157   -11.627552 H        1 UNL1     0.0279
     77 H         4.965032   -1.497797   -11.637235 H        1 UNL1     0.0279
     78 H         1.430435   -2.45052   -11.068149 H        1 UNL1     0.1553
     79 H         1.594334   -2.785595   -9.122106 H        1 UNL1     0.1484
     80 H         -0.672685   -3.069618   -6.085751 H        1 UNL1     0.0317
     81 H         -1.287955   -2.789184   -7.708318 H        1 UNL1     0.0317
     82 H         0.38676   -4.383421   -8.681685 H        1 UNL1     0.0428
     83 H         -0.621839   -5.124968   -7.459171 H        1 UNL1     0.0428
     84 H         3.272324   -3.9195   -6.240366 H        1 UNL1     0.0428
     85 H         2.870077   -3.653216   -7.900611 H        1 UNL1     0.0428
     86 H         2.691955   -1.694304   -6.365753 H        1 UNL1     0.0317
     87 H         1.519086   -2.444302   -5.3838 H        1 UNL1     0.0317
     88 H         1.408377   -6.443905   -7.935805 H        1 UNL1     0.0429
     89 H         2.872611   -6.152883   -6.993701 H        1 UNL1     0.0429
     90 H         0.230944   -6.507292   -5.526304 H        1 UNL1     0.0308
     91 H         0.132188   -8.40892   -7.090505 H        1 UNL1     0.0233
     92 H         1.833208   -8.817843   -6.75167 H        1 UNL1     0.0233
     93 H         0.609435   -9.04398   -5.520474 H        1 UNL1     0.0233
     94 H         2.355812   -5.885886   -4.382914 H        1 UNL1     0.0233
     95 H         1.571826   -7.351815   -3.774025 H        1 UNL1     0.0233
     96 H         3.011187   -7.479573   -4.811285 H        1 UNL1     0.0233
     97 H         -3.622585   4.874028   -9.673257 H        1 UNL1     0.0280
     98 H         -3.285453   4.571819   -11.356171 H        1 UNL1     0.0280
     99 H         -4.539884   3.612124   -10.516458 H        1 UNL1     0.0280
     100 H         -2.875586   2.780929   -12.466002 H        1 UNL1     0.2922
     101 H         3.834475   2.872167   -5.077052 H        1 UNL1     0.0236
     102 H         4.605739   1.727466   -3.910487 H        1 UNL1     0.0236
     103 H         3.325377   2.792757   -3.41924 H        1 UNL1     0.0236
     104 H         3.59573   -0.33768   -3.176686 H        1 UNL1     0.2098
     105 H         -0.708016   -0.190841   -1.572603 H        1 UNL1     0.0234
     106 H         0.733816   -1.105192   -1.047076 H        1 UNL1     0.0234
     107 H         0.0   0.0   0.0 H        1 UNL1     0.0234
     108 H         -0.006689   4.237761   -1.511376 H        1 UNL1     0.2098
     109 H         -1.676941   -0.26678   -1.97065 H        1 UNL1     0.0234
     110 H         -3.277612   -0.160243   -2.770215 H        1 UNL1     0.0234
     111 H         -1.965676   0.830927   -3.304302 H        1 UNL1     0.0234
     112 H         -4.202588   -1.826776   2.405713 H        1 UNL1     0.0342
     113 H         -2.831594   -2.157738   1.288091 H        1 UNL1     0.0342
     114 H         -2.539973   -1.419368   2.865347 H        1 UNL1     0.0342
     115 H         -1.821478   4.56583   -0.057912 H        1 UNL1     0.0234
     116 H         -2.046212   3.978817   1.593056 H        1 UNL1     0.0234
     117 H         -0.51007   4.66206   1.021135 H        1 UNL1     0.0234
     118 H         -3.723038   1.908861   -5.149453 H        1 UNL1     0.0309
     119 H         -4.615911   2.85303   -6.382086 H        1 UNL1     0.0309
     120 H         -3.769286   1.376916   -6.790094 H        1 UNL1     0.0309
     121 H         -3.495003   5.708346   -0.733252 H        1 UNL1     0.0524
     122 H         -4.428853   4.221511   -0.523245 H        1 UNL1     0.0524
     123 H         -2.9859   4.505206   0.482312 H        1 UNL1     0.0524
@<TRIPOS>BOND
     1     1     2    1
     2     1    42    1
     3     2     3    2
     4     3     4    1
     5     4     5    2
     6     5     7    1
     7     6    75    1
     8     6    76    1
     9     6    77    1
    10     7     9   am
    11     9    10    1
    12    10    11    2
    13    10    43    1
    14    11    14    1
    15    11    15    1
    16    12    13   ar
    17    12    27   ar
    18    12    43    1
    19    13    14    1
    20    13    30   ar
    21    14    17    2
    22    15    16    1
    23    16    17    1
    24    16    18    1
    25    16    22    1
    26    18    19    1
    27    19    20    1
    28    20    21    1
    29    21    22    1
    30    23    24    1
    31    23    88    1
    32    23    89    1
    33    24    25    1
    34    24    26    1
    35    24    90    1
    36    25    91    1
    37    25    92    1
    38    25    93    1
    39    26    94    1
    40    26    95    1
    41    26    96    1
    42    27    28   ar
    43    28    29   ar
    44    29    30   ar
    45    29    31    1
    46    30    33    1
    47    31    32    1
    48    32    33    1
    49    32    35    1
    50    34    97    1
    51    34    98    1
    52    34    99    1
    53    35    61    1
    54    36    37    1
    55    36    60    1
    56    37    38    1
    57    38    39    1
    58    39    40    1
    59    40    41    1
    60    41    42    1
    61    45   100    1
    62    47   101    1
    63    47   102    1
    64    47   103    1
    65    48   104    1
    66    49   105    1
    67    49   106    1
    68    49   107    1
    69    50   108    1
    70    51    59    1
    71    52   109    1
    72    52   110    1
    73    52   111    1
    74    53    54    1
    75    54    55    2
    76    54    56    1
    77    56   112    1
    78    56   113    1
    79    56   114    1
    80    57   115    1
    81    57   116    1
    82    57   117    1
    83    58   118    1
    84    58   119    1
    85    58   120    1
    86    59   121    1
    87    59   122    1
    88    59   123    1
    89    60    61    2
    90     1    47    1
    91     1    62    1
    92     2    63    1
    93     3    64    1
    94     4    65    1
    95     5     6    1
    96     7     8    2
    97     9    78    1
    98    15    79    1
    99    18    80    1
   100    18    81    1
   101    19    82    1
   102    19    83    1
   103    20    23    1
   104    21    84    1
   105    21    85    1
   106    22    86    1
   107    22    87    1
   108    27    45    1
   109    28    34    1
   110    32    58    1
   111    33    46    2
   112    36    51    1
   113    36    66    1
   114    37    52    1
   115    37    67    1
   116    38    53    1
   117    38    68    1
   118    42    48    1
   119    42    72    1
   120    43    44    2
   121    60    73    1
   122    61    74    1
   123    39    69    1
   124    39    57    1
   125    40    70    1
   126    40    50    1
   127    41    71    1
   128    41    49    1
