@<TRIPOS>MOLECULE
*****
 123 128 0 0 0
SMALL
GASTEIGER

@<TRIPOS>ATOM
     1 C         0.8778   -4.017754   -1.02865 C.3        1 UNL1     0.0009
     2 C         1.576931   -5.339339   0.067555 C.2        1 UNL1     -0.0787
     3 C         2.688408   -6.168957   0.482766 C.2        1 UNL1     -0.0649
     4 C         2.751269   -7.248825   1.785183 C.2        1 UNL1     -0.0542
     5 C         3.60552   -7.958933   2.664432 C.2        1 UNL1     0.0115
     6 C         5.083004   -8.357576   2.931729 C.3        1 UNL1     -0.0348
     7 C         3.000722   -8.54332   4.031802 C.2        1 UNL1     0.2441
     8 O         2.715135   -9.723271   4.182404 O.2        1 UNL1     -0.2702
     9 N         3.065019   -7.664651   5.127228 N.am        1 UNL1     -0.2772
     10 C         1.947229   -6.863184   5.1662 C.2        1 UNL1     0.1049
     11 C         1.970243   -5.794138   4.391066 C.2        1 UNL1     0.0801
     12 C         -0.550766   -6.93631   5.056612 C.ar        1 UNL1     0.0753
     13 C         -0.458765   -5.913668   4.059442 C.ar        1 UNL1     0.0305
     14 C         0.797719   -5.217955   3.790586 C.2        1 UNL1     0.0924
     15 N         2.991761   -5.236469   3.718732 N.pl3        1 UNL1     -0.3170
     16 C         2.527377   -3.991071   3.167745 C.3        1 UNL1     0.1275
     17 N         1.042705   -4.18973   2.98333 N.2        1 UNL1     -0.2557
     18 C         2.68106   -2.9308   4.253981 C.3        1 UNL1     0.0016
     19 C         4.130078   -2.912282   4.713972 C.3        1 UNL1     0.0026
     20 N         4.980509   -2.616723   3.569227 N.3        1 UNL1     -0.3018
     21 C         4.857077   -3.548195   2.446065 C.3        1 UNL1     0.0026
     22 C         3.394773   -3.547465   1.99711 C.3        1 UNL1     0.0016
     23 C         6.338957   -2.281745   3.94745 C.3        1 UNL1     0.0012
     24 C         6.422694   -1.992432   5.454448 C.3        1 UNL1     -0.0339
     25 C         6.44617   -3.291823   6.276084 C.3        1 UNL1     -0.0615
     26 C         7.631095   -1.121514   5.751181 C.3        1 UNL1     -0.0615
     27 C         -1.775143   -7.509793   5.39148 C.ar        1 UNL1     0.1347
     28 C         -2.975968   -7.116372   4.828196 C.ar        1 UNL1     0.0342
     29 C         -2.855017   -6.142636   3.814109 C.ar        1 UNL1     0.1435
     30 C         -1.630967   -5.585024   3.442637 C.ar        1 UNL1     0.0774
     31 O         -3.942809   -5.577188   3.246672 O.3        1 UNL1     -0.4436
     32 C         -3.454404   -4.362779   2.657144 C.3        1 UNL1     0.3143
     33 C         -1.972272   -4.594473   2.443094 C.2        1 UNL1     0.2504
     34 C         -4.345643   -7.503411   5.312233 C.3        1 UNL1     -0.0327
     35 O         -4.050695   -4.249534   1.35912 O.2        1 UNL1     -0.4528
     36 C         -4.348347   -0.528383   0.671714 C.3        1 UNL1     0.0854
     37 C         -3.220855   0.574275   0.650973 C.3        1 UNL1     0.0236
     38 C         -3.132318   1.424934   -0.705597 C.3        1 UNL1     0.1131
     39 C         -3.065598   0.677453   -2.09811 C.3        1 UNL1     0.0200
     40 C         -2.084104   -0.656904   -2.294577 C.3        1 UNL1     0.0661
     41 C         -0.446855   -0.758394   -1.86246 C.3        1 UNL1     0.0091
     42 C         0.542   -2.186719   -1.273007 C.3        1 UNL1     0.0661
     43 C         0.688425   -7.303041   5.786114 C.2        1 UNL1     0.2131
     44 O         0.692171   -7.838976   6.879502 O.2        1 UNL1     -0.2851
     45 O         -1.771464   -8.530852   6.339563 O.3        1 UNL1     -0.5056
     46 O         -1.242297   -4.091349   1.618561 O.2        1 UNL1     -0.2836
     47 C         0.626764   -4.577078   -2.454876 C.3        1 UNL1     -0.0566
     48 O         1.669947   -1.935102   -2.202276 O.3        1 UNL1     -0.3909
     49 C         -0.104033   0.413818   -0.970336 C.3        1 UNL1     -0.0577
     50 O         -2.759628   -1.837049   -1.909027 O.3        1 UNL1     -0.3910
     51 O         -5.016608   -0.749214   -0.549799 O.3        1 UNL1     -0.3753
     52 C         -1.944616   0.116151   1.429616 C.3        1 UNL1     -0.0564
     53 O         -2.311287   2.674741   -0.578255 O.3        1 UNL1     -0.4608
     54 C         -1.148159   2.934363   -1.25476 C.2        1 UNL1     0.3042
     55 O         0.000356   2.867991   -0.818473 O.2        1 UNL1     -0.2512
     56 C         -1.358243   3.280164   -2.70148 C.3        1 UNL1     0.0332
     57 C         -4.555322   0.598284   -2.674852 C.3        1 UNL1     -0.0567
     58 C         -3.637708   -3.255518   3.721052 C.3        1 UNL1     0.0210
     59 C         -5.992465   -1.789721   -0.519586 C.3        1 UNL1     0.0372
     60 C         -3.914791   -1.861775   1.170971 C.2        1 UNL1     -0.0208
     61 C         -4.154451   -3.083581   0.692957 C.2        1 UNL1     0.0882
     62 H         -0.073144   -4.099607   -0.488542 H        1 UNL1     0.0365
     63 H         0.685466   -5.63401   0.625165 H        1 UNL1     0.0576
     64 H         3.687706   -6.040196   0.060946 H        1 UNL1     0.0615
     65 H         1.70412   -7.366488   2.076931 H        1 UNL1     0.0622
     66 H         -5.083153   -0.158125   1.400421 H        1 UNL1     0.0645
     67 H         -3.578138   1.336494   1.365068 H        1 UNL1     0.0362
     68 H         -4.119468   1.911271   -0.682509 H        1 UNL1     0.0741
     69 H         -2.685352   1.363292   -2.843393 H        1 UNL1     0.0359
     70 H         -2.049028   -0.706756   -3.399721 H        1 UNL1     0.0600
     71 H         0.024285   -0.450202   -2.8164 H        1 UNL1     0.0348
     72 H         -0.346414   -2.613561   -1.760697 H        1 UNL1     0.0602
     73 H         -3.439751   -1.744356   2.113201 H        1 UNL1     0.0628
     74 H         -4.583212   -3.288595   -0.288558 H        1 UNL1     0.1022
     75 H         5.561286   -8.739009   1.997497 H        1 UNL1     0.0279
     76 H         5.7556   -7.556071   3.228837 H        1 UNL1     0.0279
     77 H         5.174707   -9.230676   3.594291 H        1 UNL1     0.0279
     78 H         3.875126   -7.05602   5.030419 H        1 UNL1     0.1553
     79 H         3.957536   -5.412541   3.926603 H        1 UNL1     0.1484
     80 H         2.376772   -1.957872   3.849524 H        1 UNL1     0.0317
     81 H         2.018475   -3.1393   5.100833 H        1 UNL1     0.0317
     82 H         4.419219   -3.862276   5.18707 H        1 UNL1     0.0428
     83 H         4.216958   -2.150764   5.489597 H        1 UNL1     0.0428
     84 H         5.44578   -3.259248   1.569852 H        1 UNL1     0.0428
     85 H         5.232513   -4.548725   2.701616 H        1 UNL1     0.0428
     86 H         3.368018   -4.13283   1.096766 H        1 UNL1     0.0317
     87 H         3.10781   -2.545031   1.656708 H        1 UNL1     0.0317
     88 H         6.979101   -3.144459   3.721102 H        1 UNL1     0.0429
     89 H         6.719394   -1.436098   3.36015 H        1 UNL1     0.0429
     90 H         5.548086   -1.404126   5.756392 H        1 UNL1     0.0308
     91 H         5.778367   -4.045308   5.847831 H        1 UNL1     0.0233
     92 H         7.459058   -3.698042   6.327602 H        1 UNL1     0.0233
     93 H         6.12614   -3.135836   7.313429 H        1 UNL1     0.0233
     94 H         8.551798   -1.706643   5.652352 H        1 UNL1     0.0233
     95 H         7.679408   -0.293939   5.037916 H        1 UNL1     0.0233
     96 H         7.588848   -0.71222   6.764424 H        1 UNL1     0.0233
     97 H         -4.93298   -7.981149   4.533752 H        1 UNL1     0.0280
     98 H         -4.303871   -8.222174   6.141022 H        1 UNL1     0.0280
     99 H         -4.885745   -6.603644   5.649583 H        1 UNL1     0.0280
     100 H         -1.843233   -8.237723   7.230937 H        1 UNL1     0.2922
     101 H         -0.439876   -4.746115   -2.601034 H        1 UNL1     0.0236
     102 H         1.215912   -5.466356   -2.676397 H        1 UNL1     0.0236
     103 H         0.905345   -3.852999   -3.238645 H        1 UNL1     0.0236
     104 H         2.279403   -1.309561   -1.763832 H        1 UNL1     0.2098
     105 H         0.829211   0.911557   -1.221582 H        1 UNL1     0.0234
     106 H         -0.90298   1.14586   -0.85319 H        1 UNL1     0.0234
     107 H         0.0   0.0   0.0 H        1 UNL1     0.0234
     108 H         -2.088073   -2.54094   -1.823473 H        1 UNL1     0.2098
     109 H         -1.549878   0.906657   2.083064 H        1 UNL1     0.0234
     110 H         -2.101298   -0.797415   2.013219 H        1 UNL1     0.0234
     111 H         -1.124501   -0.141806   0.746377 H        1 UNL1     0.0234
     112 H         -0.392953   3.454501   -3.186421 H        1 UNL1     0.0342
     113 H         -1.926955   2.514597   -3.22714 H        1 UNL1     0.0342
     114 H         -1.933586   4.214891   -2.750772 H        1 UNL1     0.0342
     115 H         -4.571242   0.643521   -3.772526 H        1 UNL1     0.0234
     116 H         -5.100249   -0.299128   -2.375261 H        1 UNL1     0.0234
     117 H         -5.174244   1.474703   -2.416458 H        1 UNL1     0.0234
     118 H         -2.950313   -2.406871   3.558901 H        1 UNL1     0.0309
     119 H         -4.664132   -2.879347   3.777197 H        1 UNL1     0.0309
     120 H         -3.384101   -3.596597   4.730733 H        1 UNL1     0.0309
     121 H         -6.889262   -1.387098   -0.049472 H        1 UNL1     0.0524
     122 H         -6.272014   -2.130595   -1.530375 H        1 UNL1     0.0524
     123 H         -5.620178   -2.63779   0.048106 H        1 UNL1     0.0524
@<TRIPOS>BOND
     1     1     2    1
     2     1    42    1
     3     2     3    2
     4     3     4    1
     5     4     5    2
     6     5     7    1
     7     6    75    1
     8     6    76    1
     9     6    77    1
    10     7     9   am
    11     9    10    1
    12    10    11    2
    13    10    43    1
    14    11    14    1
    15    11    15    1
    16    12    13   ar
    17    12    27   ar
    18    12    43    1
    19    13    14    1
    20    13    30   ar
    21    14    17    2
    22    15    16    1
    23    16    17    1
    24    16    18    1
    25    16    22    1
    26    18    19    1
    27    19    20    1
    28    20    21    1
    29    21    22    1
    30    23    24    1
    31    23    88    1
    32    23    89    1
    33    24    25    1
    34    24    26    1
    35    24    90    1
    36    25    91    1
    37    25    92    1
    38    25    93    1
    39    26    94    1
    40    26    95    1
    41    26    96    1
    42    27    28   ar
    43    28    29   ar
    44    29    30   ar
    45    29    31    1
    46    30    33    1
    47    31    32    1
    48    32    33    1
    49    32    35    1
    50    34    97    1
    51    34    98    1
    52    34    99    1
    53    35    61    1
    54    36    37    1
    55    36    60    1
    56    37    38    1
    57    38    39    1
    58    39    40    1
    59    40    41    1
    60    41    42    1
    61    45   100    1
    62    47   101    1
    63    47   102    1
    64    47   103    1
    65    48   104    1
    66    49   105    1
    67    49   106    1
    68    49   107    1
    69    50   108    1
    70    51    59    1
    71    52   109    1
    72    52   110    1
    73    52   111    1
    74    53    54    1
    75    54    55    2
    76    54    56    1
    77    56   112    1
    78    56   113    1
    79    56   114    1
    80    57   115    1
    81    57   116    1
    82    57   117    1
    83    58   118    1
    84    58   119    1
    85    58   120    1
    86    59   121    1
    87    59   122    1
    88    59   123    1
    89    60    61    2
    90     1    47    1
    91     1    62    1
    92     2    63    1
    93     3    64    1
    94     4    65    1
    95     5     6    1
    96     7     8    2
    97     9    78    1
    98    15    79    1
    99    18    80    1
   100    18    81    1
   101    19    82    1
   102    19    83    1
   103    20    23    1
   104    21    84    1
   105    21    85    1
   106    22    86    1
   107    22    87    1
   108    27    45    1
   109    28    34    1
   110    32    58    1
   111    33    46    2
   112    36    51    1
   113    36    66    1
   114    37    52    1
   115    37    67    1
   116    38    53    1
   117    38    68    1
   118    42    48    1
   119    42    72    1
   120    43    44    2
   121    60    73    1
   122    61    74    1
   123    39    69    1
   124    39    57    1
   125    40    70    1
   126    40    50    1
   127    41    71    1
   128    41    49    1
