@<TRIPOS>MOLECULE
*****
 123 128 0 0 0
SMALL
GASTEIGER

@<TRIPOS>ATOM
     1 C         -1.359855   0.571936   -4.69954 C.3        1 UNL1     0.0009
     2 C         -0.601815   0.166969   -6.342225 C.2        1 UNL1     -0.0787
     3 C         -0.052798   0.59443   -7.611833 C.2        1 UNL1     -0.0649
     4 C         0.67688   -0.360419   -8.804389 C.2        1 UNL1     -0.0542
     5 C         1.53651   -0.355691   -9.930485 C.2        1 UNL1     0.0115
     6 C         2.275235   0.56147   -10.943611 C.3        1 UNL1     -0.0348
     7 C         2.195143   -1.738599   -10.410857 C.2        1 UNL1     0.2441
     8 O         1.783734   -2.372899   -11.372591 O.2        1 UNL1     -0.2702
     9 N         3.43336   -2.038891   -9.816892 N.am        1 UNL1     -0.2772
     10 C         3.247042   -2.725459   -8.639084 C.2        1 UNL1     0.1049
     11 C         2.987404   -1.99143   -7.572308 C.2        1 UNL1     0.0801
     12 C         2.021933   -4.668205   -7.648034 C.ar        1 UNL1     0.0753
     13 C         1.593389   -3.771843   -6.617745 C.ar        1 UNL1     0.0305
     14 C         2.17035   -2.436874   -6.476234 C.2        1 UNL1     0.0924
     15 N         3.078811   -0.662211   -7.395251 N.pl3        1 UNL1     -0.3170
     16 C         2.849077   -0.387731   -6.001645 C.3        1 UNL1     0.1275
     17 N         1.968586   -1.520585   -5.533561 N.2        1 UNL1     -0.2557
     18 C         4.182345   -0.561939   -5.280708 C.3        1 UNL1     0.0016
     19 C         5.212249   0.343396   -5.937407 C.3        1 UNL1     0.0026
     20 N         4.746505   1.720652   -5.852106 N.3        1 UNL1     -0.3018
     21 C         3.440809   1.974477   -6.464559 C.3        1 UNL1     0.0026
     22 C         2.420796   1.057933   -5.786757 C.3        1 UNL1     0.0016
     23 C         5.778333   2.685914   -6.174977 C.3        1 UNL1     0.0012
     24 C         5.497814   4.027218   -5.479299 C.3        1 UNL1     -0.0339
     25 C         4.054759   4.4974   -5.725421 C.3        1 UNL1     -0.0615
     26 C         5.805067   3.918759   -3.995853 C.3        1 UNL1     -0.0615
     27 C         1.55614   -5.979727   -7.703404 C.ar        1 UNL1     0.1347
     28 C         0.693899   -6.518298   -6.765038 C.ar        1 UNL1     0.0342
     29 C         0.247279   -5.603305   -5.788062 C.ar        1 UNL1     0.1435
     30 C         0.677181   -4.276577   -5.741206 C.ar        1 UNL1     0.0774
     31 O         -0.50857   -6.002408   -4.741918 O.3        1 UNL1     -0.4436
     32 C         -0.357812   -4.959621   -3.766859 C.3        1 UNL1     0.3143
     33 C         0.043145   -3.731591   -4.558939 C.2        1 UNL1     0.2504
     34 C         0.351467   -7.974487   -6.615523 C.3        1 UNL1     -0.0327
     35 O         -1.655804   -4.697479   -3.219365 O.2        1 UNL1     -0.4528
     36 C         -1.065999   -3.532653   0.344818 C.3        1 UNL1     0.0854
     37 C         -0.200247   -2.322151   0.867004 C.3        1 UNL1     0.0236
     38 C         -0.986896   -1.281141   1.799327 C.3        1 UNL1     0.1131
     39 C         -2.366923   -0.679529   1.313675 C.3        1 UNL1     0.0200
     40 C         -2.55598   -0.162928   -0.261069 C.3        1 UNL1     0.0661
     41 C         -1.507125   0.873713   -1.099454 C.3        1 UNL1     0.0091
     42 C         -1.076133   0.943957   -2.881227 C.3        1 UNL1     0.0661
     43 C         3.047799   -4.181965   -8.603769 C.2        1 UNL1     0.2131
     44 O         3.767074   -4.92006   -9.252303 O.2        1 UNL1     -0.2851
     45 O         1.987163   -6.773115   -8.764626 O.3        1 UNL1     -0.5056
     46 O         -0.139565   -2.566218   -4.28622 O.2        1 UNL1     -0.2836
     47 C         -2.843609   0.991706   -4.879116 C.3        1 UNL1     -0.0566
     48 O         -1.255847   2.4124   -2.98367 O.3        1 UNL1     -0.3909
     49 C         -0.211449   0.985777   -0.327341 C.3        1 UNL1     -0.0577
     50 O         -2.946483   -1.234087   -1.096443 O.3        1 UNL1     -0.3910
     51 O         -2.44854   -3.461416   0.61116 O.3        1 UNL1     -0.3753
     52 C         0.850989   -1.858419   -0.193564 C.3        1 UNL1     -0.0564
     53 O         -0.083865   -0.353445   2.558431 O.3        1 UNL1     -0.4608
     54 C         1.071602   0.203129   2.075677 C.2        1 UNL1     0.3042
     55 O         1.395758   1.389801   2.099569 O.2        1 UNL1     -0.2512
     56 C         2.036068   -0.803631   1.516255 C.3        1 UNL1     0.0332
     57 C         -3.53239   -1.570601   1.950739 C.3        1 UNL1     -0.0567
     58 C         0.823661   -5.376111   -2.860114 C.3        1 UNL1     0.0210
     59 C         -3.285271   -3.523745   -0.542903 C.3        1 UNL1     0.0372
     60 C         -0.923198   -3.827851   -1.106949 C.2        1 UNL1     -0.0208
     61 C         -1.848106   -4.096354   -2.029552 C.2        1 UNL1     0.0882
     62 H         -1.364233   -0.498105   -4.459321 H        1 UNL1     0.0365
     63 H         -0.639095   -0.924175   -6.320199 H        1 UNL1     0.0576
     64 H         0.087045   1.651645   -7.848155 H        1 UNL1     0.0615
     65 H         0.412165   -1.381991   -8.518384 H        1 UNL1     0.0622
     66 H         -0.661852   -4.408567   0.871587 H        1 UNL1     0.0645
     67 H         0.495336   -2.7823   1.590183 H        1 UNL1     0.0362
     68 H         -1.237568   -1.942515   2.642695 H        1 UNL1     0.0741
     69 H         -2.57611   0.215865   1.883692 H        1 UNL1     0.0359
     70 H         -3.470793   0.450488   -0.151992 H        1 UNL1     0.0600
     71 H         -1.979261   1.85004   -0.874001 H        1 UNL1     0.0348
     72 H         -2.021536   0.385619   -2.819696 H        1 UNL1     0.0602
     73 H         0.106945   -3.929504   -1.343001 H        1 UNL1     0.0628
     74 H         -2.920522   -3.96088   -1.885299 H        1 UNL1     0.1022
     75 H         1.787673   1.564963   -10.99178 H        1 UNL1     0.0279
     76 H         3.30669   0.813266   -10.707461 H        1 UNL1     0.0279
     77 H         2.169129   0.218754   -11.983317 H        1 UNL1     0.0279
     78 H         3.924076   -1.175458   -9.593825 H        1 UNL1     0.1553
     79 H         3.61837   -0.057326   -7.986794 H        1 UNL1     0.1484
     80 H         4.050317   -0.31519   -4.220307 H        1 UNL1     0.0317
     81 H         4.51555   -1.604541   -5.320788 H        1 UNL1     0.0317
     82 H         5.402215   0.053739   -6.981401 H        1 UNL1     0.0428
     83 H         6.155653   0.202093   -5.409134 H        1 UNL1     0.0428
     84 H         3.078424   2.99661   -6.317139 H        1 UNL1     0.0428
     85 H         3.47183   1.857308   -7.556633 H        1 UNL1     0.0428
     86 H         1.462105   1.363254   -6.16316 H        1 UNL1     0.0317
     87 H         2.359613   1.291842   -4.716879 H        1 UNL1     0.0317
     88 H         6.737197   2.296176   -5.808945 H        1 UNL1     0.0429
     89 H         5.877255   2.815858   -7.260381 H        1 UNL1     0.0429
     90 H         6.184285   4.786332   -5.872641 H        1 UNL1     0.0308
     91 H         3.585346   3.932734   -6.536536 H        1 UNL1     0.0233
     92 H         3.453768   4.39039   -4.819349 H        1 UNL1     0.0233
     93 H         4.002476   5.556965   -6.003674 H        1 UNL1     0.0233
     94 H         4.876058   3.932907   -3.415698 H        1 UNL1     0.0233
     95 H         6.317692   2.975272   -3.788467 H        1 UNL1     0.0233
     96 H         6.436328   4.745242   -3.657616 H        1 UNL1     0.0233
     97 H         0.784256   -8.404685   -5.717273 H        1 UNL1     0.0280
     98 H         -0.731066   -8.139   -6.536052 H        1 UNL1     0.0280
     99 H         0.7327   -8.534425   -7.485136 H        1 UNL1     0.0280
     100 H         1.783135   -7.687694   -8.677795 H        1 UNL1     0.2922
     101 H         -3.335042   0.315315   -5.578148 H        1 UNL1     0.0236
     102 H         -2.961806   2.035433   -5.168333 H        1 UNL1     0.0236
     103 H         -3.418209   0.892686   -3.943048 H        1 UNL1     0.0236
     104 H         -1.434702   2.751096   -2.084633 H        1 UNL1     0.2098
     105 H         0.634652   1.329134   -0.917282 H        1 UNL1     0.0234
     106 H         -0.281478   1.554858   0.599573 H        1 UNL1     0.0234
     107 H         0.0   0.0   0.0 H        1 UNL1     0.0234
     108 H         -3.382285   -0.846926   -1.879993 H        1 UNL1     0.2098
     109 H         0.658225   -0.837417   -0.551487 H        1 UNL1     0.0234
     110 H         1.883908   -1.932717   0.163232 H        1 UNL1     0.0234
     111 H         0.831788   -2.495473   -1.087846 H        1 UNL1     0.0234
     112 H         1.576425   -1.796632   1.511493 H        1 UNL1     0.0342
     113 H         2.383442   -0.529116   0.52136 H        1 UNL1     0.0342
     114 H         2.913503   -0.841838   2.176416 H        1 UNL1     0.0342
     115 H         -4.517753   -1.306679   1.54258 H        1 UNL1     0.0234
     116 H         -3.396342   -2.64492   1.811532 H        1 UNL1     0.0234
     117 H         -3.690557   -1.383969   3.026887 H        1 UNL1     0.0234
     118 H         1.443142   -4.511773   -2.563179 H        1 UNL1     0.0309
     119 H         0.506504   -5.914954   -1.961637 H        1 UNL1     0.0309
     120 H         1.53536   -6.032886   -3.372205 H        1 UNL1     0.0309
     121 H         -3.306651   -4.560038   -0.879051 H        1 UNL1     0.0524
     122 H         -4.32368   -3.224446   -0.323443 H        1 UNL1     0.0524
     123 H         -2.892024   -2.883288   -1.327292 H        1 UNL1     0.0524
@<TRIPOS>BOND
     1     1     2    1
     2     1    42    1
     3     2     3    2
     4     3     4    1
     5     4     5    2
     6     5     7    1
     7     6    75    1
     8     6    76    1
     9     6    77    1
    10     7     9   am
    11     9    10    1
    12    10    11    2
    13    10    43    1
    14    11    14    1
    15    11    15    1
    16    12    13   ar
    17    12    27   ar
    18    12    43    1
    19    13    14    1
    20    13    30   ar
    21    14    17    2
    22    15    16    1
    23    16    17    1
    24    16    18    1
    25    16    22    1
    26    18    19    1
    27    19    20    1
    28    20    21    1
    29    21    22    1
    30    23    24    1
    31    23    88    1
    32    23    89    1
    33    24    25    1
    34    24    26    1
    35    24    90    1
    36    25    91    1
    37    25    92    1
    38    25    93    1
    39    26    94    1
    40    26    95    1
    41    26    96    1
    42    27    28   ar
    43    28    29   ar
    44    29    30   ar
    45    29    31    1
    46    30    33    1
    47    31    32    1
    48    32    33    1
    49    32    35    1
    50    34    97    1
    51    34    98    1
    52    34    99    1
    53    35    61    1
    54    36    37    1
    55    36    60    1
    56    37    38    1
    57    38    39    1
    58    39    40    1
    59    40    41    1
    60    41    42    1
    61    45   100    1
    62    47   101    1
    63    47   102    1
    64    47   103    1
    65    48   104    1
    66    49   105    1
    67    49   106    1
    68    49   107    1
    69    50   108    1
    70    51    59    1
    71    52   109    1
    72    52   110    1
    73    52   111    1
    74    53    54    1
    75    54    55    2
    76    54    56    1
    77    56   112    1
    78    56   113    1
    79    56   114    1
    80    57   115    1
    81    57   116    1
    82    57   117    1
    83    58   118    1
    84    58   119    1
    85    58   120    1
    86    59   121    1
    87    59   122    1
    88    59   123    1
    89    60    61    2
    90     1    47    1
    91     1    62    1
    92     2    63    1
    93     3    64    1
    94     4    65    1
    95     5     6    1
    96     7     8    2
    97     9    78    1
    98    15    79    1
    99    18    80    1
   100    18    81    1
   101    19    82    1
   102    19    83    1
   103    20    23    1
   104    21    84    1
   105    21    85    1
   106    22    86    1
   107    22    87    1
   108    27    45    1
   109    28    34    1
   110    32    58    1
   111    33    46    2
   112    36    51    1
   113    36    66    1
   114    37    52    1
   115    37    67    1
   116    38    53    1
   117    38    68    1
   118    42    48    1
   119    42    72    1
   120    43    44    2
   121    60    73    1
   122    61    74    1
   123    39    69    1
   124    39    57    1
   125    40    70    1
   126    40    50    1
   127    41    71    1
   128    41    49    1
