@<TRIPOS>MOLECULE
*****
 123 128 0 0 0
SMALL
GASTEIGER

@<TRIPOS>ATOM
     1 C         2.489305   -0.869369   3.226381 C.3        1 UNL1     0.0009
     2 C         3.67636   -2.277151   3.441056 C.2        1 UNL1     -0.0787
     3 C         3.958334   -3.625619   3.886217 C.2        1 UNL1     -0.0649
     4 C         5.386676   -4.511432   3.682422 C.2        1 UNL1     -0.0542
     5 C         5.956658   -5.80836   3.669135 C.2        1 UNL1     0.0115
     6 C         5.685926   -7.303326   3.993331 C.3        1 UNL1     -0.0348
     7 C         7.387477   -6.021014   2.973057 C.2        1 UNL1     0.2441
     8 O         8.426947   -6.130745   3.608657 O.2        1 UNL1     -0.2702
     9 N         7.335529   -6.333707   1.603504 N.am        1 UNL1     -0.2772
     10 C         7.321576   -5.18344   0.848512 C.2        1 UNL1     0.1049
     11 C         6.145376   -4.6031   0.693657 C.2        1 UNL1     0.0801
     12 C         8.486032   -2.989055   0.555169 C.ar        1 UNL1     0.0753
     13 C         7.189887   -2.383827   0.603307 C.ar        1 UNL1     0.0305
     14 C         5.968946   -3.184203   0.542062 C.2        1 UNL1     0.0924
     15 N         4.913134   -5.059249   0.976562 N.pl3        1 UNL1     -0.3170
     16 C         3.963676   -4.109912   0.459315 C.3        1 UNL1     0.1275
     17 N         4.6997   -2.792438   0.475253 N.2        1 UNL1     -0.2557
     18 C         3.737978   -4.451152   -1.010486 C.3        1 UNL1     0.0016
     19 C         3.29339   -5.90166   -1.110275 C.3        1 UNL1     0.0026
     20 N         2.069261   -6.069796   -0.339387 N.3        1 UNL1     -0.3018
     21 C         2.170859   -5.706906   1.075659 C.3        1 UNL1     0.0026
     22 C         2.614204   -4.2449   1.152317 C.3        1 UNL1     0.0016
     23 C         1.402004   -7.328072   -0.607998 C.3        1 UNL1     0.0012
     24 C         2.247878   -8.195155   -1.553736 C.3        1 UNL1     -0.0339
     25 C         1.363338   -9.009023   -2.512519 C.3        1 UNL1     -0.0615
     26 C         3.239467   -7.327215   -2.30886 C.3        1 UNL1     -0.0615
     27 C         9.642207   -2.214844   0.492119 C.ar        1 UNL1     0.1347
     28 C         9.626795   -0.83276   0.431654 C.ar        1 UNL1     0.0342
     29 C         8.342075   -0.2574   0.529727 C.ar        1 UNL1     0.1435
     30 C         7.17736   -1.019402   0.629789 C.ar        1 UNL1     0.0774
     31 O         8.151221   1.071091   0.375801 O.3        1 UNL1     -0.4436
     32 C         6.755326   1.203665   0.067947 C.3        1 UNL1     0.3143
     33 C         6.105745   -0.045541   0.628075 C.2        1 UNL1     0.2504
     34 C         10.801567   0.048918   0.111255 C.3        1 UNL1     -0.0327
     35 O         6.254817   2.310672   0.827736 O.2        1 UNL1     -0.4528
     36 C         3.424399   3.787305   -1.225646 C.3        1 UNL1     0.0854
     37 C         2.11387   3.091982   -1.760963 C.3        1 UNL1     0.0236
     38 C         0.745272   3.813304   -1.338616 C.3        1 UNL1     0.1131
     39 C         0.483584   4.17358   0.179274 C.3        1 UNL1     0.0200
     40 C         0.848573   3.077768   1.382776 C.3        1 UNL1     0.0661
     41 C         0.384376   1.446491   1.415457 C.3        1 UNL1     0.0091
     42 C         1.236172   -0.019339   2.116304 C.3        1 UNL1     0.0661
     43 C         8.554604   -4.469774   0.484264 C.2        1 UNL1     0.2131
     44 O         9.517891   -5.079203   0.055998 O.2        1 UNL1     -0.2851
     45 O         10.865811   -2.881347   0.494476 O.3        1 UNL1     -0.5056
     46 O         4.966216   -0.196591   1.008221 O.2        1 UNL1     -0.2836
     47 C         2.227158   -0.172524   4.58861 C.3        1 UNL1     -0.0566
     48 O         0.028884   -0.532197   2.808076 O.3        1 UNL1     -0.3909
     49 C         -0.113163   1.053097   0.042435 C.3        1 UNL1     -0.0577
     50 O         2.198164   3.204192   1.783205 O.3        1 UNL1     -0.3910
     51 O         3.23232   4.840872   -0.30884 O.3        1 UNL1     -0.3753
     52 C         2.255429   1.535251   -1.79969 C.3        1 UNL1     -0.0564
     53 O         -0.444153   3.355875   -2.131303 O.3        1 UNL1     -0.4608
     54 C         -1.517151   2.667063   -1.629164 C.2        1 UNL1     0.3042
     55 O         -2.230351   2.985268   -0.678411 O.2        1 UNL1     -0.2512
     56 C         -1.84581   1.420435   -2.400278 C.3        1 UNL1     0.0332
     57 C         0.926555   5.694921   0.397157 C.3        1 UNL1     -0.0567
     58 C         6.642935   1.175792   -1.474168 C.3        1 UNL1     0.0210
     59 C         2.733673   6.049386   -0.880425 C.3        1 UNL1     0.0372
     60 C         4.42183   2.865314   -0.617186 C.2        1 UNL1     -0.0208
     61 C         5.129325   2.977672   0.507791 C.2        1 UNL1     0.0882
     62 H         3.284681   -0.29936   2.731226 H        1 UNL1     0.0365
     63 H         4.601898   -1.818943   3.086238 H        1 UNL1     0.0576
     64 H         3.171413   -4.277158   4.272689 H        1 UNL1     0.0615
     65 H         6.118031   -3.75934   3.374263 H        1 UNL1     0.0622
     66 H         3.904479   4.200196   -2.124029 H        1 UNL1     0.0645
     67 H         2.135106   3.281007   -2.848335 H        1 UNL1     0.0362
     68 H         0.88149   4.779233   -1.848466 H        1 UNL1     0.0741
     69 H         -0.576559   4.336538   0.320521 H        1 UNL1     0.0359
     70 H         0.269805   3.513665   2.219484 H        1 UNL1     0.0600
     71 H         -0.567437   1.527576   1.976201 H        1 UNL1     0.0348
     72 H         1.687797   0.856232   2.604899 H        1 UNL1     0.0602
     73 H         4.625931   2.074576   -1.295658 H        1 UNL1     0.0628
     74 H         4.943448   3.723635   1.281242 H        1 UNL1     0.1022
     75 H         6.099873   -7.568195   4.996091 H        1 UNL1     0.0279
     76 H         4.643136   -7.59875   4.084891 H        1 UNL1     0.0279
     77 H         6.24577   -7.988337   3.339852 H        1 UNL1     0.0279
     78 H         6.477897   -6.843273   1.401295 H        1 UNL1     0.1553
     79 H         4.695061   -6.029894   1.107808 H        1 UNL1     0.1484
     80 H         2.982824   -3.771466   -1.423445 H        1 UNL1     0.0317
     81 H         4.652177   -4.29526   -1.593229 H        1 UNL1     0.0317
     82 H         4.076726   -6.59227   -0.764796 H        1 UNL1     0.0428
     83 H         3.139864   -6.124414   -2.166618 H        1 UNL1     0.0428
     84 H         1.219297   -5.766139   1.61309 H        1 UNL1     0.0428
     85 H         2.831436   -6.390596   1.626589 H        1 UNL1     0.0428
     86 H         2.5491   -3.976645   2.190483 H        1 UNL1     0.0317
     87 H         1.86492   -3.600669   0.676253 H        1 UNL1     0.0317
     88 H         1.283962   -7.862088   0.343941 H        1 UNL1     0.0429
     89 H         0.394791   -7.166746   -1.013302 H        1 UNL1     0.0429
     90 H         2.851243   -8.891474   -0.959342 H        1 UNL1     0.0308
     91 H         0.301858   -8.801736   -2.347006 H        1 UNL1     0.0233
     92 H         1.614302   -8.786625   -3.55231 H        1 UNL1     0.0233
     93 H         1.499227   -10.090358   -2.38971 H        1 UNL1     0.0233
     94 H         3.332025   -7.672762   -3.344169 H        1 UNL1     0.0233
     95 H         2.889532   -6.291313   -2.329217 H        1 UNL1     0.0233
     96 H         4.229403   -7.356343   -1.845021 H        1 UNL1     0.0233
     97 H         11.735799   -0.369347   0.473876 H        1 UNL1     0.0280
     98 H         10.933328   0.186066   -0.969988 H        1 UNL1     0.0280
     99 H         10.660285   1.036673   0.579736 H        1 UNL1     0.0280
     100 H         11.534169   -2.474682   -0.028538 H        1 UNL1     0.2922
     101 H         1.37549   -0.639664   5.082673 H        1 UNL1     0.0236
     102 H         2.10814   0.906973   4.501983 H        1 UNL1     0.0236
     103 H         3.066615   -0.30722   5.291007 H        1 UNL1     0.0236
     104 H         -0.190044   -1.399738   2.415121 H        1 UNL1     0.2098
     105 H         -1.160185   1.282781   -0.138678 H        1 UNL1     0.0234
     106 H         0.500559   1.410997   -0.784112 H        1 UNL1     0.0234
     107 H         0.0   0.0   -0.0 H        1 UNL1     0.0234
     108 H         2.332936   4.130901   2.060363 H        1 UNL1     0.2098
     109 H         1.696199   1.087309   -2.63295 H        1 UNL1     0.0234
     110 H         3.297136   1.198541   -1.834556 H        1 UNL1     0.0234
     111 H         1.85553   1.069714   -0.889029 H        1 UNL1     0.0234
     112 H         -1.341322   1.439474   -3.37109 H        1 UNL1     0.0342
     113 H         -1.593102   0.517621   -1.846284 H        1 UNL1     0.0342
     114 H         -2.928982   1.406103   -2.583844 H        1 UNL1     0.0342
     115 H         0.261182   6.393354   -0.128827 H        1 UNL1     0.0234
     116 H         0.962353   6.001227   1.444508 H        1 UNL1     0.0234
     117 H         1.899334   5.940043   -0.062798 H        1 UNL1     0.0234
     118 H         7.44394   1.76098   -1.958887 H        1 UNL1     0.0309
     119 H         6.640541   0.161802   -1.886503 H        1 UNL1     0.0309
     120 H         5.726257   1.653057   -1.837522 H        1 UNL1     0.0309
     121 H         3.310361   6.87417   -0.462669 H        1 UNL1     0.0524
     122 H         2.859725   6.077374   -1.97558 H        1 UNL1     0.0524
     123 H         1.680449   6.170604   -0.64353 H        1 UNL1     0.0524
@<TRIPOS>BOND
     1     1     2    1
     2     1    42    1
     3     2     3    2
     4     3     4    1
     5     4     5    2
     6     5     7    1
     7     6    75    1
     8     6    76    1
     9     6    77    1
    10     7     9   am
    11     9    10    1
    12    10    11    2
    13    10    43    1
    14    11    14    1
    15    11    15    1
    16    12    13   ar
    17    12    27   ar
    18    12    43    1
    19    13    14    1
    20    13    30   ar
    21    14    17    2
    22    15    16    1
    23    16    17    1
    24    16    18    1
    25    16    22    1
    26    18    19    1
    27    19    20    1
    28    20    21    1
    29    21    22    1
    30    23    24    1
    31    23    88    1
    32    23    89    1
    33    24    25    1
    34    24    26    1
    35    24    90    1
    36    25    91    1
    37    25    92    1
    38    25    93    1
    39    26    94    1
    40    26    95    1
    41    26    96    1
    42    27    28   ar
    43    28    29   ar
    44    29    30   ar
    45    29    31    1
    46    30    33    1
    47    31    32    1
    48    32    33    1
    49    32    35    1
    50    34    97    1
    51    34    98    1
    52    34    99    1
    53    35    61    1
    54    36    37    1
    55    36    60    1
    56    37    38    1
    57    38    39    1
    58    39    40    1
    59    40    41    1
    60    41    42    1
    61    45   100    1
    62    47   101    1
    63    47   102    1
    64    47   103    1
    65    48   104    1
    66    49   105    1
    67    49   106    1
    68    49   107    1
    69    50   108    1
    70    51    59    1
    71    52   109    1
    72    52   110    1
    73    52   111    1
    74    53    54    1
    75    54    55    2
    76    54    56    1
    77    56   112    1
    78    56   113    1
    79    56   114    1
    80    57   115    1
    81    57   116    1
    82    57   117    1
    83    58   118    1
    84    58   119    1
    85    58   120    1
    86    59   121    1
    87    59   122    1
    88    59   123    1
    89    60    61    2
    90     1    47    1
    91     1    62    1
    92     2    63    1
    93     3    64    1
    94     4    65    1
    95     5     6    1
    96     7     8    2
    97     9    78    1
    98    15    79    1
    99    18    80    1
   100    18    81    1
   101    19    82    1
   102    19    83    1
   103    20    23    1
   104    21    84    1
   105    21    85    1
   106    22    86    1
   107    22    87    1
   108    27    45    1
   109    28    34    1
   110    32    58    1
   111    33    46    2
   112    36    51    1
   113    36    66    1
   114    37    52    1
   115    37    67    1
   116    38    53    1
   117    38    68    1
   118    42    48    1
   119    42    72    1
   120    43    44    2
   121    60    73    1
   122    61    74    1
   123    39    69    1
   124    39    57    1
   125    40    70    1
   126    40    50    1
   127    41    71    1
   128    41    49    1
