@<TRIPOS>MOLECULE
*****
 123 128 0 0 0
SMALL
GASTEIGER

@<TRIPOS>ATOM
     1 C         2.818857   4.236527   2.029196 C.3        1 UNL1     0.0009
     2 C         3.467156   5.055305   3.560975 C.2        1 UNL1     -0.0787
     3 C         3.369923   6.089335   4.569626 C.2        1 UNL1     -0.0649
     4 C         4.314323   6.276648   5.962241 C.2        1 UNL1     -0.0542
     5 C         4.385031   6.872407   7.245655 C.2        1 UNL1     0.0115
     6 C         3.706575   7.89944   8.193401 C.3        1 UNL1     -0.0348
     7 C         5.442531   6.301494   8.309958 C.2        1 UNL1     0.2441
     8 O         6.502833   6.858546   8.558909 O.2        1 UNL1     -0.2702
     9 N         4.956343   5.264576   9.125172 N.am        1 UNL1     -0.2772
     10 C         5.153996   4.044877   8.519706 C.2        1 UNL1     0.1049
     11 C         4.247075   3.682655   7.630599 C.2        1 UNL1     0.0801
     12 C         6.890524   2.659325   7.369902 C.ar        1 UNL1     0.0753
     13 C         5.932441   2.467445   6.324021 C.ar        1 UNL1     0.0305
     14 C         4.535398   2.864678   6.483795 C.2        1 UNL1     0.0924
     15 N         3.040945   4.211601   7.36228 N.pl3        1 UNL1     -0.3170
     16 C         2.378203   3.342316   6.426668 C.3        1 UNL1     0.1275
     17 N         3.50086   2.675898   5.669534 N.2        1 UNL1     -0.2557
     18 C         1.700201   2.240454   7.235318 C.3        1 UNL1     0.0016
     19 C         0.776304   2.884938   8.256417 C.3        1 UNL1     0.0026
     20 N         -0.205636   3.69741   7.551639 N.3        1 UNL1     -0.3018
     21 C         0.353825   4.746979   6.697369 C.3        1 UNL1     0.0026
     22 C         1.274918   4.076786   5.676426 C.3        1 UNL1     0.0016
     23 C         -1.306883   4.111539   8.39804 C.3        1 UNL1     0.0012
     24 C         -2.198677   2.909878   8.748 C.3        1 UNL1     -0.0339
     25 C         -3.675332   3.321325   8.867405 C.3        1 UNL1     -0.0615
     26 C         -2.00752   1.803968   7.724671 C.3        1 UNL1     -0.0615
     27 C         8.189681   2.169796   7.25733 C.ar        1 UNL1     0.1347
     28 C         8.633696   1.441427   6.168119 C.ar        1 UNL1     0.0342
     29 C         7.687877   1.307094   5.129588 C.ar        1 UNL1     0.1435
     30 C         6.394118   1.823286   5.212973 C.ar        1 UNL1     0.0774
     31 O         7.931621   0.532032   4.050295 O.3        1 UNL1     -0.4436
     32 C         6.635011   0.266336   3.494345 C.3        1 UNL1     0.3143
     33 C         5.753864   1.396756   3.986224 C.2        1 UNL1     0.2504
     34 C         9.924087   0.674327   6.087201 C.3        1 UNL1     -0.0327
     35 O         6.743433   0.410166   2.072793 O.2        1 UNL1     -0.4528
     36 C         4.180865   -1.964109   0.588156 C.3        1 UNL1     0.0854
     37 C         2.623465   -2.026753   0.829199 C.3        1 UNL1     0.0236
     38 C         1.730042   -1.946142   -0.500102 C.3        1 UNL1     0.1131
     39 C         1.983727   -0.788249   -1.547575 C.3        1 UNL1     0.0200
     40 C         2.23215   0.778404   -1.03151 C.3        1 UNL1     0.0661
     41 C         1.260748   1.627651   0.069747 C.3        1 UNL1     0.0091
     42 C         1.702705   2.9143   1.300442 C.3        1 UNL1     0.0661
     43 C         6.429185   3.319026   8.616586 C.2        1 UNL1     0.2131
     44 O         6.991466   3.198019   9.689869 O.2        1 UNL1     -0.2851
     45 O         9.073194   2.439127   8.300547 O.3        1 UNL1     -0.5056
     46 O         4.759828   1.856572   3.470167 O.2        1 UNL1     -0.2836
     47 C         3.149487   5.094175   0.778154 C.3        1 UNL1     -0.0566
     48 O         0.598976   3.8258   0.913056 O.3        1 UNL1     -0.3909
     49 C         0.341578   0.648677   0.765613 C.3        1 UNL1     -0.0577
     50 O         3.597746   1.000167   -0.742217 O.3        1 UNL1     -0.3910
     51 O         4.589101   -1.672265   -0.729266 O.3        1 UNL1     -0.3753
     52 C         2.210195   -1.305346   2.153484 C.3        1 UNL1     -0.0564
     53 O         0.301542   -2.355149   -0.289329 O.3        1 UNL1     -0.4608
     54 C         -0.47672   -3.022957   -1.198324 C.2        1 UNL1     0.3042
     55 O         -1.356553   -2.551268   -1.91752 O.2        1 UNL1     -0.2512
     56 C         -0.134582   -4.480001   -1.327459 C.3        1 UNL1     0.0332
     57 C         2.959017   -1.364501   -2.676698 C.3        1 UNL1     -0.0567
     58 C         6.149515   -1.057326   4.129752 C.3        1 UNL1     0.0210
     59 C         5.150163   -2.774346   -1.44095 C.3        1 UNL1     0.0372
     60 C         4.918631   -1.0311   1.482782 C.2        1 UNL1     -0.0208
     61 C         5.872156   -0.140659   1.205928 C.2        1 UNL1     0.0882
     62 H         3.61584   3.48809   2.115064 H        1 UNL1     0.0365
     63 H         4.378102   4.477511   3.730684 H        1 UNL1     0.0576
     64 H         2.526381   6.782638   4.599184 H        1 UNL1     0.0615
     65 H         5.160796   5.604993   5.795372 H        1 UNL1     0.0622
     66 H         4.54009   -2.971546   0.841288 H        1 UNL1     0.0645
     67 H         2.443728   -3.067068   1.151687 H        1 UNL1     0.0362
     68 H         2.06043   -2.869405   -1.000053 H        1 UNL1     0.0741
     69 H         1.111227   -0.693958   -2.180236 H        1 UNL1     0.0359
     70 H         2.058657   1.321453   -1.980224 H        1 UNL1     0.0600
     71 H         0.560316   2.122053   -0.631622 H        1 UNL1     0.0348
     72 H         2.530641   2.889414   0.577104 H        1 UNL1     0.0602
     73 H         4.668986   -1.244648   2.492398 H        1 UNL1     0.0628
     74 H         6.146063   0.176625   0.199179 H        1 UNL1     0.1022
     75 H         3.381101   8.803087   7.623732 H        1 UNL1     0.0279
     76 H         2.78429   7.580639   8.673846 H        1 UNL1     0.0279
     77 H         4.409099   8.340044   8.915917 H        1 UNL1     0.0279
     78 H         3.954417   5.379233   9.263286 H        1 UNL1     0.1553
     79 H         2.542828   4.811465   7.993925 H        1 UNL1     0.1484
     80 H         1.14693   1.584594   6.552306 H        1 UNL1     0.0317
     81 H         2.442196   1.612721   7.740339 H        1 UNL1     0.0317
     82 H         1.335061   3.486033   8.988802 H        1 UNL1     0.0428
     83 H         0.304601   2.081604   8.823163 H        1 UNL1     0.0428
     84 H         -0.400021   5.289748   6.118638 H        1 UNL1     0.0428
     85 H         0.853316   5.529485   7.285169 H        1 UNL1     0.0428
     86 H         1.559284   4.852554   4.989907 H        1 UNL1     0.0317
     87 H         0.699549   3.383051   5.051302 H        1 UNL1     0.0317
     88 H         -0.888612   4.518858   9.32779 H        1 UNL1     0.0429
     89 H         -1.890273   4.914325   7.929035 H        1 UNL1     0.0429
     90 H         -1.874658   2.489462   9.707414 H        1 UNL1     0.0308
     91 H         -3.980264   3.956212   8.030125 H        1 UNL1     0.0233
     92 H         -4.320224   2.440147   8.902748 H        1 UNL1     0.0233
     93 H         -3.878604   3.886035   9.785347 H        1 UNL1     0.0233
     94 H         -2.875737   1.13611   7.723666 H        1 UNL1     0.0233
     95 H         -1.911611   2.233704   6.723627 H        1 UNL1     0.0233
     96 H         -1.115002   1.210139   7.940886 H        1 UNL1     0.0233
     97 H         9.759369   -0.380128   5.886646 H        1 UNL1     0.0280
     98 H         10.570911   1.036773   5.277567 H        1 UNL1     0.0280
     99 H         10.467073   0.763716   7.042329 H        1 UNL1     0.0280
     100 H         9.097305   3.340366   8.570381 H        1 UNL1     0.2922
     101 H         3.097608   4.474348   -0.116709 H        1 UNL1     0.0236
     102 H         4.100902   5.61905   0.857518 H        1 UNL1     0.0236
     103 H         2.40316   5.888855   0.611808 H        1 UNL1     0.0236
     104 H         0.496403   3.769138   -0.057119 H        1 UNL1     0.2098
     105 H         0.825696   0.040483   1.525574 H        1 UNL1     0.0234
     106 H         -0.575513   1.086356   1.159706 H        1 UNL1     0.0234
     107 H         -0.0   0.0   0.0 H        1 UNL1     0.0234
     108 H         3.655635   1.834254   -0.237523 H        1 UNL1     0.2098
     109 H         2.675553   -1.761542   3.038379 H        1 UNL1     0.0234
     110 H         2.420714   -0.230503   2.141842 H        1 UNL1     0.0234
     111 H         1.126949   -1.362602   2.324498 H        1 UNL1     0.0234
     112 H         -1.051388   -5.076861   -1.351387 H        1 UNL1     0.0342
     113 H         0.484402   -4.679485   -2.200906 H        1 UNL1     0.0342
     114 H         0.438191   -4.778031   -0.438486 H        1 UNL1     0.0342
     115 H         2.746784   -0.926841   -3.661888 H        1 UNL1     0.0234
     116 H         4.019487   -1.208006   -2.469429 H        1 UNL1     0.0234
     117 H         2.807157   -2.437926   -2.88319 H        1 UNL1     0.0234
     118 H         6.124588   -1.883792   3.398083 H        1 UNL1     0.0309
     119 H         6.746383   -1.36285   4.994972 H        1 UNL1     0.0309
     120 H         5.113503   -0.999761   4.481138 H        1 UNL1     0.0309
     121 H         5.818565   -2.370255   -2.200756 H        1 UNL1     0.0524
     122 H         5.748135   -3.432626   -0.788927 H        1 UNL1     0.0524
     123 H         4.36329   -3.360395   -1.907287 H        1 UNL1     0.0524
@<TRIPOS>BOND
     1     1     2    1
     2     1    42    1
     3     2     3    2
     4     3     4    1
     5     4     5    2
     6     5     7    1
     7     6    75    1
     8     6    76    1
     9     6    77    1
    10     7     9   am
    11     9    10    1
    12    10    11    2
    13    10    43    1
    14    11    14    1
    15    11    15    1
    16    12    13   ar
    17    12    27   ar
    18    12    43    1
    19    13    14    1
    20    13    30   ar
    21    14    17    2
    22    15    16    1
    23    16    17    1
    24    16    18    1
    25    16    22    1
    26    18    19    1
    27    19    20    1
    28    20    21    1
    29    21    22    1
    30    23    24    1
    31    23    88    1
    32    23    89    1
    33    24    25    1
    34    24    26    1
    35    24    90    1
    36    25    91    1
    37    25    92    1
    38    25    93    1
    39    26    94    1
    40    26    95    1
    41    26    96    1
    42    27    28   ar
    43    28    29   ar
    44    29    30   ar
    45    29    31    1
    46    30    33    1
    47    31    32    1
    48    32    33    1
    49    32    35    1
    50    34    97    1
    51    34    98    1
    52    34    99    1
    53    35    61    1
    54    36    37    1
    55    36    60    1
    56    37    38    1
    57    38    39    1
    58    39    40    1
    59    40    41    1
    60    41    42    1
    61    45   100    1
    62    47   101    1
    63    47   102    1
    64    47   103    1
    65    48   104    1
    66    49   105    1
    67    49   106    1
    68    49   107    1
    69    50   108    1
    70    51    59    1
    71    52   109    1
    72    52   110    1
    73    52   111    1
    74    53    54    1
    75    54    55    2
    76    54    56    1
    77    56   112    1
    78    56   113    1
    79    56   114    1
    80    57   115    1
    81    57   116    1
    82    57   117    1
    83    58   118    1
    84    58   119    1
    85    58   120    1
    86    59   121    1
    87    59   122    1
    88    59   123    1
    89    60    61    2
    90     1    47    1
    91     1    62    1
    92     2    63    1
    93     3    64    1
    94     4    65    1
    95     5     6    1
    96     7     8    2
    97     9    78    1
    98    15    79    1
    99    18    80    1
   100    18    81    1
   101    19    82    1
   102    19    83    1
   103    20    23    1
   104    21    84    1
   105    21    85    1
   106    22    86    1
   107    22    87    1
   108    27    45    1
   109    28    34    1
   110    32    58    1
   111    33    46    2
   112    36    51    1
   113    36    66    1
   114    37    52    1
   115    37    67    1
   116    38    53    1
   117    38    68    1
   118    42    48    1
   119    42    72    1
   120    43    44    2
   121    60    73    1
   122    61    74    1
   123    39    69    1
   124    39    57    1
   125    40    70    1
   126    40    50    1
   127    41    71    1
   128    41    49    1
