@<TRIPOS>MOLECULE
*****
 123 128 0 0 0
SMALL
GASTEIGER

@<TRIPOS>ATOM
     1 C         5.134627   1.830825   0.543545 C.3        1 UNL1     0.0009
     2 C         6.551234   2.694156   -0.284055 C.2        1 UNL1     -0.0787
     3 C         7.837207   2.645484   -0.947342 C.2        1 UNL1     -0.0649
     4 C         8.682822   3.920286   -1.67272 C.2        1 UNL1     -0.0542
     5 C         9.697168   4.261076   -2.601181 C.2        1 UNL1     0.0115
     6 C         10.844459   3.685676   -3.476374 C.3        1 UNL1     -0.0348
     7 C         9.75378   5.759327   -3.17479 C.2        1 UNL1     0.2441
     8 O         10.553884   6.594582   -2.776408 O.2        1 UNL1     -0.2702
     9 N         9.001541   5.971461   -4.343245 N.am        1 UNL1     -0.2772
     10 C         7.707874   6.316153   -4.025542 C.2        1 UNL1     0.1049
     11 C         6.888046   5.315935   -3.75783 C.2        1 UNL1     0.0801
     12 C         6.362157   7.855574   -2.584514 C.ar        1 UNL1     0.0753
     13 C         5.632846   6.697894   -2.164405 C.ar        1 UNL1     0.0305
     14 C         5.787159   5.41033   -2.837768 C.2        1 UNL1     0.0924
     15 N         7.047292   3.994593   -3.945503 N.pl3        1 UNL1     -0.3170
     16 C         5.793342   3.354376   -3.648881 C.3        1 UNL1     0.1275
     17 N         5.128351   4.270226   -2.650518 N.2        1 UNL1     -0.2557
     18 C         4.942811   3.417954   -4.913894 C.3        1 UNL1     0.0016
     19 C         5.719273   2.779563   -6.054575 C.3        1 UNL1     0.0026
     20 N         6.025769   1.401179   -5.697998 N.3        1 UNL1     -0.3018
     21 C         6.789673   1.234441   -4.459847 C.3        1 UNL1     0.0026
     22 C         5.989203   1.878774   -3.32672 C.3        1 UNL1     0.0016
     23 C         6.495611   0.618574   -6.823795 C.3        1 UNL1     0.0012
     24 C         5.350201   0.359389   -7.815066 C.3        1 UNL1     -0.0339
     25 C         5.69882   0.869324   -9.223074 C.3        1 UNL1     -0.0615
     26 C         4.996161   -1.117529   -7.82719 C.3        1 UNL1     -0.0615
     27 C         6.121486   9.105091   -2.018031 C.ar        1 UNL1     0.1347
     28 C         5.152702   9.327341   -1.055683 C.ar        1 UNL1     0.0342
     29 C         4.481007   8.164411   -0.622576 C.ar        1 UNL1     0.1435
     30 C         4.736748   6.900221   -1.155154 C.ar        1 UNL1     0.0774
     31 O         3.434877   8.230885   0.229598 O.3        1 UNL1     -0.4436
     32 C         2.747473   6.982319   0.058043 C.3        1 UNL1     0.3143
     33 C         3.788971   6.029039   -0.492185 C.2        1 UNL1     0.2504
     34 C         4.667546   10.670797   -0.586803 C.3        1 UNL1     -0.0327
     35 O         2.395122   6.507207   1.363175 O.2        1 UNL1     -0.4528
     36 C         -0.79292   4.496746   0.913147 C.3        1 UNL1     0.0854
     37 C         -1.061201   3.248316   -0.01258 C.3        1 UNL1     0.0236
     38 C         -1.629409   1.954433   0.745543 C.3        1 UNL1     0.1131
     39 C         -0.89316   1.415006   2.037528 C.3        1 UNL1     0.0200
     40 C         0.771258   1.313803   2.081226 C.3        1 UNL1     0.0661
     41 C         1.754546   0.597157   0.899205 C.3        1 UNL1     0.0091
     42 C         3.453217   1.018281   0.349138 C.3        1 UNL1     0.0661
     43 C         7.320693   7.698409   -3.706462 C.2        1 UNL1     0.2131
     44 O         7.697997   8.622568   -4.403821 O.2        1 UNL1     -0.2851
     45 O         6.906544   10.171702   -2.451 O.3        1 UNL1     -0.5056
     46 O         3.837381   4.823805   -0.387676 O.2        1 UNL1     -0.2836
     47 C         5.538452   1.380844   1.973378 C.3        1 UNL1     -0.0566
     48 O         3.939834   -0.381564   0.401623 O.3        1 UNL1     -0.3909
     49 C         0.930538   0.369225   -0.348413 C.3        1 UNL1     -0.0577
     50 O         1.336925   2.538624   2.502602 O.3        1 UNL1     -0.3910
     51 O         -0.915751   4.273303   2.299659 O.3        1 UNL1     -0.3753
     52 C         -0.009488   3.141606   -1.164735 C.3        1 UNL1     -0.0564
     53 O         -2.200914   0.919435   -0.178841 O.3        1 UNL1     -0.4608
     54 C         -2.369143   -0.407373   0.119838 C.2        1 UNL1     0.3042
     55 O         -1.667716   -1.349928   -0.245439 O.2        1 UNL1     -0.2512
     56 C         -3.522347   -0.674059   1.044886 C.3        1 UNL1     0.0332
     57 C         -1.635733   2.036338   3.310598 C.3        1 UNL1     -0.0567
     58 C         1.669085   7.221806   -1.024202 C.3        1 UNL1     0.0210
     59 C         -1.263062   5.426849   3.064232 C.3        1 UNL1     0.0372
     60 C         0.51909   5.166626   0.700895 C.2        1 UNL1     -0.0208
     61 C         1.417352   5.607347   1.582731 C.2        1 UNL1     0.0882
     62 H         4.631819   2.799548   0.650649 H        1 UNL1     0.0365
     63 H         6.256072   3.737767   -0.156678 H        1 UNL1     0.0576
     64 H         8.321663   1.696509   -1.187877 H        1 UNL1     0.0615
     65 H         8.169993   4.814281   -1.307669 H        1 UNL1     0.0622
     66 H         -1.556752   5.22938   0.616743 H        1 UNL1     0.0645
     67 H         -1.933119   3.547368   -0.619942 H        1 UNL1     0.0362
     68 H         -2.589027   2.357591   1.103482 H        1 UNL1     0.0741
     69 H         -1.197562   0.39123   2.209665 H        1 UNL1     0.0359
     70 H         0.898483   0.637596   2.948185 H        1 UNL1     0.0600
     71 H         1.824726   -0.43156   1.303894 H        1 UNL1     0.0348
     72 H         3.331292   1.481835   1.338869 H        1 UNL1     0.0602
     73 H         0.634509   5.389682   -0.330693 H        1 UNL1     0.0628
     74 H         1.402517   5.372883   2.647647 H        1 UNL1     0.1022
     75 H         10.867804   2.571253   -3.408926 H        1 UNL1     0.0279
     76 H         10.768079   3.853942   -4.548252 H        1 UNL1     0.0279
     77 H         11.842385   3.946916   -3.094801 H        1 UNL1     0.0279
     78 H         8.964757   5.111861   -4.887131 H        1 UNL1     0.1553
     79 H         7.725726   3.598477   -4.569805 H        1 UNL1     0.1484
     80 H         3.994717   2.896937   -4.733824 H        1 UNL1     0.0317
     81 H         4.688807   4.453856   -5.162973 H        1 UNL1     0.0317
     82 H         6.635814   3.341271   -6.287706 H        1 UNL1     0.0428
     83 H         5.095382   2.837227   -6.947035 H        1 UNL1     0.0428
     84 H         6.937489   0.188619   -4.17311 H        1 UNL1     0.0428
     85 H         7.809646   1.632522   -4.55207 H        1 UNL1     0.0428
     86 H         6.509678   1.622697   -2.422554 H        1 UNL1     0.0317
     87 H         5.022785   1.372067   -3.21545 H        1 UNL1     0.0317
     88 H         7.278108   1.193232   -7.336396 H        1 UNL1     0.0429
     89 H         6.952818   -0.322556   -6.492118 H        1 UNL1     0.0429
     90 H         4.450011   0.880345   -7.467969 H        1 UNL1     0.0308
     91 H         6.708778   0.567736   -9.516557 H        1 UNL1     0.0233
     92 H         4.984072   0.49241   -9.958383 H        1 UNL1     0.0233
     93 H         5.660694   1.963206   -9.292393 H        1 UNL1     0.0233
     94 H         4.400663   -1.355903   -8.715107 H        1 UNL1     0.0233
     95 H         5.908145   -1.7201   -7.861182 H        1 UNL1     0.0233
     96 H         4.421076   -1.397318   -6.94008 H        1 UNL1     0.0233
     97 H         3.819369   10.585657   0.085936 H        1 UNL1     0.0280
     98 H         5.439173   11.218136   -0.029786 H        1 UNL1     0.0280
     99 H         4.360283   11.275958   -1.455403 H        1 UNL1     0.0280
     100 H         6.422481   10.942872   -2.688913 H        1 UNL1     0.2922
     101 H         4.66036   1.015774   2.505669 H        1 UNL1     0.0236
     102 H         6.064318   2.153401   2.533383 H        1 UNL1     0.0236
     103 H         6.232355   0.523853   1.957333 H        1 UNL1     0.0236
     104 H         4.272709   -0.544409   1.305861 H        1 UNL1     0.2098
     105 H         0.735822   1.267831   -0.928417 H        1 UNL1     0.0234
     106 H         1.296431   -0.426913   -0.996652 H        1 UNL1     0.0234
     107 H         0.0   -0.0   0.0 H        1 UNL1     0.0234
     108 H         1.177   3.191111   1.793763 H        1 UNL1     0.2098
     109 H         1.018089   3.060158   -0.783731 H        1 UNL1     0.0234
     110 H         -0.210529   2.315996   -1.855889 H        1 UNL1     0.0234
     111 H         -0.019132   4.033454   -1.805406 H        1 UNL1     0.0234
     112 H         -3.587905   -1.745189   1.258725 H        1 UNL1     0.0342
     113 H         -3.451701   -0.095599   1.964798 H        1 UNL1     0.0342
     114 H         -4.448101   -0.375332   0.534097 H        1 UNL1     0.0342
     115 H         -2.719424   1.858073   3.27859 H        1 UNL1     0.0234
     116 H         -1.268865   1.658218   4.266883 H        1 UNL1     0.0234
     117 H         -1.602063   3.138897   3.344813 H        1 UNL1     0.0234
     118 H         0.75216   7.67059   -0.603667 H        1 UNL1     0.0309
     119 H         2.023291   7.84182   -1.853854 H        1 UNL1     0.0309
     120 H         1.310584   6.289441   -1.473955 H        1 UNL1     0.0309
     121 H         -0.889796   5.275915   4.076777 H        1 UNL1     0.0524
     122 H         -0.795736   6.345267   2.67161 H        1 UNL1     0.0524
     123 H         -2.341347   5.558025   3.077908 H        1 UNL1     0.0524
@<TRIPOS>BOND
     1     1     2    1
     2     1    42    1
     3     2     3    2
     4     3     4    1
     5     4     5    2
     6     5     7    1
     7     6    75    1
     8     6    76    1
     9     6    77    1
    10     7     9   am
    11     9    10    1
    12    10    11    2
    13    10    43    1
    14    11    14    1
    15    11    15    1
    16    12    13   ar
    17    12    27   ar
    18    12    43    1
    19    13    14    1
    20    13    30   ar
    21    14    17    2
    22    15    16    1
    23    16    17    1
    24    16    18    1
    25    16    22    1
    26    18    19    1
    27    19    20    1
    28    20    21    1
    29    21    22    1
    30    23    24    1
    31    23    88    1
    32    23    89    1
    33    24    25    1
    34    24    26    1
    35    24    90    1
    36    25    91    1
    37    25    92    1
    38    25    93    1
    39    26    94    1
    40    26    95    1
    41    26    96    1
    42    27    28   ar
    43    28    29   ar
    44    29    30   ar
    45    29    31    1
    46    30    33    1
    47    31    32    1
    48    32    33    1
    49    32    35    1
    50    34    97    1
    51    34    98    1
    52    34    99    1
    53    35    61    1
    54    36    37    1
    55    36    60    1
    56    37    38    1
    57    38    39    1
    58    39    40    1
    59    40    41    1
    60    41    42    1
    61    45   100    1
    62    47   101    1
    63    47   102    1
    64    47   103    1
    65    48   104    1
    66    49   105    1
    67    49   106    1
    68    49   107    1
    69    50   108    1
    70    51    59    1
    71    52   109    1
    72    52   110    1
    73    52   111    1
    74    53    54    1
    75    54    55    2
    76    54    56    1
    77    56   112    1
    78    56   113    1
    79    56   114    1
    80    57   115    1
    81    57   116    1
    82    57   117    1
    83    58   118    1
    84    58   119    1
    85    58   120    1
    86    59   121    1
    87    59   122    1
    88    59   123    1
    89    60    61    2
    90     1    47    1
    91     1    62    1
    92     2    63    1
    93     3    64    1
    94     4    65    1
    95     5     6    1
    96     7     8    2
    97     9    78    1
    98    15    79    1
    99    18    80    1
   100    18    81    1
   101    19    82    1
   102    19    83    1
   103    20    23    1
   104    21    84    1
   105    21    85    1
   106    22    86    1
   107    22    87    1
   108    27    45    1
   109    28    34    1
   110    32    58    1
   111    33    46    2
   112    36    51    1
   113    36    66    1
   114    37    52    1
   115    37    67    1
   116    38    53    1
   117    38    68    1
   118    42    48    1
   119    42    72    1
   120    43    44    2
   121    60    73    1
   122    61    74    1
   123    39    69    1
   124    39    57    1
   125    40    70    1
   126    40    50    1
   127    41    71    1
   128    41    49    1
