@<TRIPOS>MOLECULE
*****
 123 128 0 0 0
SMALL
GASTEIGER

@<TRIPOS>ATOM
     1 C         1.555951   2.998572   4.312685 C.3        1 UNL1     0.0009
     2 C         1.986011   4.693821   4.927678 C.2        1 UNL1     -0.0787
     3 C         2.977181   5.675864   5.313968 C.2        1 UNL1     -0.0649
     4 C         2.727424   7.296918   5.733682 C.2        1 UNL1     -0.0542
     5 C         3.336259   8.569423   5.864567 C.2        1 UNL1     0.0115
     6 C         4.698144   9.316812   5.864739 C.3        1 UNL1     -0.0348
     7 C         2.403374   9.874428   5.9252 C.2        1 UNL1     0.2441
     8 O         2.146504   10.460913   6.967591 O.2        1 UNL1     -0.2702
     9 N         2.114828   10.45071   4.675884 N.am        1 UNL1     -0.2772
     10 C         0.99205   9.873487   4.128612 C.2        1 UNL1     0.1049
     11 C         1.177291   8.734158   3.486868 C.2        1 UNL1     0.0801
     12 C         -1.368803   9.236914   4.656327 C.ar        1 UNL1     0.0753
     13 C         -1.053024   7.941412   4.136165 C.ar        1 UNL1     0.0305
     14 C         0.192063   7.689451   3.414136 C.2        1 UNL1     0.0924
     15 N         2.316784   8.139368   3.094047 N.pl3        1 UNL1     -0.3170
     16 C         1.96321   7.004487   2.283317 C.3        1 UNL1     0.1275
     17 N         0.60116   6.591304   2.785137 N.2        1 UNL1     -0.2557
     18 C         1.753849   7.513073   0.860218 C.3        1 UNL1     0.0016
     19 C         3.013695   8.236638   0.412075 C.3        1 UNL1     0.0026
     20 N         4.134322   7.308756   0.477335 N.3        1 UNL1     -0.3018
     21 C         4.376564   6.718176   1.795251 C.3        1 UNL1     0.0026
     22 C         3.099931   5.992621   2.223822 C.3        1 UNL1     0.0016
     23 C         5.314344   7.800745   -0.205407 C.3        1 UNL1     0.0012
     24 C         5.094901   7.803003   -1.726458 C.3        1 UNL1     -0.0339
     25 C         5.033521   9.23472   -2.283662 C.3        1 UNL1     -0.0615
     26 C         6.175475   6.983086   -2.409742 C.3        1 UNL1     -0.0615
     27 C         -2.607676   9.499467   5.236308 C.ar        1 UNL1     0.1347
     28 C         -3.621291   8.561289   5.316653 C.ar        1 UNL1     0.0342
     29 C         -3.270577   7.279384   4.842435 C.ar        1 UNL1     0.1435
     30 C         -2.020991   6.99203   4.291815 C.ar        1 UNL1     0.0774
     31 O         -4.183262   6.28754   4.75155 O.3        1 UNL1     -0.4436
     32 C         -3.610951   5.35182   3.825396 C.3        1 UNL1     0.3143
     33 C         -2.118409   5.60911   3.873715 C.2        1 UNL1     0.2504
     34 C         -5.05051   8.837407   5.692408 C.3        1 UNL1     -0.0327
     35 O         -3.825508   4.03925   4.358665 O.2        1 UNL1     -0.4528
     36 C         -4.104996   1.730169   1.358979 C.3        1 UNL1     0.0854
     37 C         -3.073318   1.483861   0.191719 C.3        1 UNL1     0.0236
     38 C         -2.651785   -0.048066   -0.025658 C.3        1 UNL1     0.1131
     39 C         -2.161134   -0.909839   1.20677 C.3        1 UNL1     0.0200
     40 C         -1.098343   -0.264971   2.319001 C.3        1 UNL1     0.0661
     41 C         0.355783   0.530707   1.958409 C.3        1 UNL1     0.0091
     42 C         1.210639   1.900279   2.829556 C.3        1 UNL1     0.0661
     43 C         -0.366202   10.31624   4.477143 C.2        1 UNL1     0.2131
     44 O         -0.641434   11.502059   4.505741 O.2        1 UNL1     -0.2851
     45 O         -2.818071   10.773687   5.759315 O.3        1 UNL1     -0.5056
     46 O         -1.213179   4.839478   3.641167 O.2        1 UNL1     -0.2836
     47 C         1.741935   1.951408   5.443542 C.3        1 UNL1     -0.0566
     48 O         2.539321   1.242414   2.799004 O.3        1 UNL1     -0.3909
     49 C         0.376434   0.864952   0.483503 C.3        1 UNL1     -0.0577
     50 O         -1.794762   0.435746   3.329802 O.3        1 UNL1     -0.3910
     51 O         -4.393227   0.61506   2.171928 O.3        1 UNL1     -0.3753
     52 C         -2.044357   2.654702   0.067946 C.3        1 UNL1     -0.0564
     53 O         -1.96271   -0.301408   -1.334596 O.3        1 UNL1     -0.4608
     54 C         -1.174587   -1.385116   -1.621599 C.2        1 UNL1     0.3042
     55 O         0.054433   -1.424526   -1.663969 O.2        1 UNL1     -0.2512
     56 C         -1.951505   -2.650992   -1.846694 C.3        1 UNL1     0.0332
     57 C         -3.424337   -1.717184   1.764163 C.3        1 UNL1     -0.0567
     58 C         -4.139535   5.742861   2.425676 C.3        1 UNL1     0.0210
     59 C         -5.690585   0.052918   1.980291 C.3        1 UNL1     0.0372
     60 C         -3.762116   2.852003   2.274992 C.2        1 UNL1     -0.0208
     61 C         -3.79713   2.922457   3.606366 C.2        1 UNL1     0.0882
     62 H         0.497274   3.284622   4.322081 H        1 UNL1     0.0365
     63 H         0.990123   5.102771   5.110536 H        1 UNL1     0.0576
     64 H         4.046808   5.48276   5.205719 H        1 UNL1     0.0615
     65 H         1.647721   7.361338   5.893606 H        1 UNL1     0.0622
     66 H         -5.031785   2.029589   0.849611 H        1 UNL1     0.0645
     67 H         -3.65366   1.684104   -0.725704 H        1 UNL1     0.0362
     68 H         -3.629088   -0.469771   -0.305951 H        1 UNL1     0.0741
     69 H         -1.622534   -1.77185   0.836292 H        1 UNL1     0.0359
     70 H         -0.753281   -1.193164   2.81342 H        1 UNL1     0.0600
     71 H         1.058766   -0.324443   1.997013 H        1 UNL1     0.0348
     72 H         0.516496   1.461951   3.561232 H        1 UNL1     0.0602
     73 H         -3.575903   3.726259   1.702061 H        1 UNL1     0.0628
     74 H         -3.923603   2.063484   4.266219 H        1 UNL1     0.1022
     75 H         5.339606   8.96258   6.707402 H        1 UNL1     0.0279
     76 H         5.338659   9.158248   5.000061 H        1 UNL1     0.0279
     77 H         4.596698   10.385548   6.103929 H        1 UNL1     0.0279
     78 H         2.88818   10.283875   4.035439 H        1 UNL1     0.1553
     79 H         3.193501   8.619303   3.004806 H        1 UNL1     0.1484
     80 H         1.526454   6.662452   0.206381 H        1 UNL1     0.0317
     81 H         0.892248   8.187324   0.808439 H        1 UNL1     0.0317
     82 H         3.206229   9.133162   1.019601 H        1 UNL1     0.0428
     83 H         2.842063   8.592581   -0.60424 H        1 UNL1     0.0428
     84 H         5.171505   5.965937   1.799418 H        1 UNL1     0.0428
     85 H         4.715183   7.468222   2.52332 H        1 UNL1     0.0428
     86 H         3.35526   5.464489   3.12375 H        1 UNL1     0.0317
     87 H         2.869766   5.188482   1.514258 H        1 UNL1     0.0317
     88 H         5.493769   8.832744   0.123348 H        1 UNL1     0.0429
     89 H         6.203953   7.217651   0.065466 H        1 UNL1     0.0429
     90 H         4.147958   7.299053   -1.953494 H        1 UNL1     0.0308
     91 H         5.842188   9.852765   -1.88219 H        1 UNL1     0.0233
     92 H         5.095172   9.227702   -3.374423 H        1 UNL1     0.0233
     93 H         4.092791   9.740125   -2.033804 H        1 UNL1     0.0233
     94 H         6.269571   7.282103   -3.459299 H        1 UNL1     0.0233
     95 H         7.139293   7.155131   -1.922488 H        1 UNL1     0.0233
     96 H         5.947748   5.91405   -2.374073 H        1 UNL1     0.0233
     97 H         -5.679873   7.960537   5.573108 H        1 UNL1     0.0280
     98 H         -5.151289   9.138954   6.743203 H        1 UNL1     0.0280
     99 H         -5.451768   9.640391   5.05264 H        1 UNL1     0.0280
     100 H         -3.622029   11.180534   5.487747 H        1 UNL1     0.2922
     101 H         1.528013   0.954054   5.059903 H        1 UNL1     0.0236
     102 H         1.162442   2.178651   6.337707 H        1 UNL1     0.0236
     103 H         2.787026   1.899106   5.791742 H        1 UNL1     0.0236
     104 H         2.615495   0.693988   3.604235 H        1 UNL1     0.2098
     105 H         -0.255901   1.70399   0.204256 H        1 UNL1     0.0234
     106 H         1.372541   0.984438   0.05757 H        1 UNL1     0.0234
     107 H         0.0   0.0   -0.0 H        1 UNL1     0.0234
     108 H         -2.108299   1.273793   2.93847 H        1 UNL1     0.2098
     109 H         -2.531425   3.615074   -0.151517 H        1 UNL1     0.0234
     110 H         -1.405385   2.761312   0.951174 H        1 UNL1     0.0234
     111 H         -1.336136   2.485893   -0.754169 H        1 UNL1     0.0234
     112 H         -1.555288   -3.180832   -2.71826 H        1 UNL1     0.0342
     113 H         -1.952951   -3.292574   -0.966799 H        1 UNL1     0.0342
     114 H         -2.994102   -2.379864   -2.06267 H        1 UNL1     0.0342
     115 H         -3.931997   -2.280758   0.969271 H        1 UNL1     0.0234
     116 H         -3.183921   -2.42099   2.56348 H        1 UNL1     0.0234
     117 H         -4.241463   -1.065525   2.118545 H        1 UNL1     0.0234
     118 H         -4.839588   4.990637   2.021831 H        1 UNL1     0.0309
     119 H         -4.620481   6.725997   2.407291 H        1 UNL1     0.0309
     120 H         -3.345639   5.779515   1.671693 H        1 UNL1     0.0309
     121 H         -5.973332   -0.447038   2.90628 H        1 UNL1     0.0524
     122 H         -6.453098   0.821821   1.771962 H        1 UNL1     0.0524
     123 H         -5.674321   -0.65891   1.159846 H        1 UNL1     0.0524
@<TRIPOS>BOND
     1     1     2    1
     2     1    42    1
     3     2     3    2
     4     3     4    1
     5     4     5    2
     6     5     7    1
     7     6    75    1
     8     6    76    1
     9     6    77    1
    10     7     9   am
    11     9    10    1
    12    10    11    2
    13    10    43    1
    14    11    14    1
    15    11    15    1
    16    12    13   ar
    17    12    27   ar
    18    12    43    1
    19    13    14    1
    20    13    30   ar
    21    14    17    2
    22    15    16    1
    23    16    17    1
    24    16    18    1
    25    16    22    1
    26    18    19    1
    27    19    20    1
    28    20    21    1
    29    21    22    1
    30    23    24    1
    31    23    88    1
    32    23    89    1
    33    24    25    1
    34    24    26    1
    35    24    90    1
    36    25    91    1
    37    25    92    1
    38    25    93    1
    39    26    94    1
    40    26    95    1
    41    26    96    1
    42    27    28   ar
    43    28    29   ar
    44    29    30   ar
    45    29    31    1
    46    30    33    1
    47    31    32    1
    48    32    33    1
    49    32    35    1
    50    34    97    1
    51    34    98    1
    52    34    99    1
    53    35    61    1
    54    36    37    1
    55    36    60    1
    56    37    38    1
    57    38    39    1
    58    39    40    1
    59    40    41    1
    60    41    42    1
    61    45   100    1
    62    47   101    1
    63    47   102    1
    64    47   103    1
    65    48   104    1
    66    49   105    1
    67    49   106    1
    68    49   107    1
    69    50   108    1
    70    51    59    1
    71    52   109    1
    72    52   110    1
    73    52   111    1
    74    53    54    1
    75    54    55    2
    76    54    56    1
    77    56   112    1
    78    56   113    1
    79    56   114    1
    80    57   115    1
    81    57   116    1
    82    57   117    1
    83    58   118    1
    84    58   119    1
    85    58   120    1
    86    59   121    1
    87    59   122    1
    88    59   123    1
    89    60    61    2
    90     1    47    1
    91     1    62    1
    92     2    63    1
    93     3    64    1
    94     4    65    1
    95     5     6    1
    96     7     8    2
    97     9    78    1
    98    15    79    1
    99    18    80    1
   100    18    81    1
   101    19    82    1
   102    19    83    1
   103    20    23    1
   104    21    84    1
   105    21    85    1
   106    22    86    1
   107    22    87    1
   108    27    45    1
   109    28    34    1
   110    32    58    1
   111    33    46    2
   112    36    51    1
   113    36    66    1
   114    37    52    1
   115    37    67    1
   116    38    53    1
   117    38    68    1
   118    42    48    1
   119    42    72    1
   120    43    44    2
   121    60    73    1
   122    61    74    1
   123    39    69    1
   124    39    57    1
   125    40    70    1
   126    40    50    1
   127    41    71    1
   128    41    49    1
