@<TRIPOS>MOLECULE
*****
 123 128 0 0 0
SMALL
GASTEIGER

@<TRIPOS>ATOM
     1 C         5.036495   2.056626   0.644793 C.3        1 UNL1     0.0009
     2 C         6.422329   2.998226   -0.148864 C.2        1 UNL1     -0.0787
     3 C         7.717832   3.020133   -0.794803 C.2        1 UNL1     -0.0649
     4 C         8.512892   4.344621   -1.487601 C.2        1 UNL1     -0.0542
     5 C         9.522518   4.747426   -2.396162 C.2        1 UNL1     0.0115
     6 C         10.706746   4.240394   -3.264404 C.3        1 UNL1     -0.0348
     7 C         9.517117   6.256108   -2.944651 C.2        1 UNL1     0.2441
     8 O         10.272259   7.12062   -2.52168 O.2        1 UNL1     -0.2702
     9 N         8.771358   6.452852   -4.119932 N.am        1 UNL1     -0.2772
     10 C         7.459001   6.73205   -3.814825 C.2        1 UNL1     0.1049
     11 C         6.683007   5.690687   -3.574793 C.2        1 UNL1     0.0801
     12 C         6.024359   8.183281   -2.368082 C.ar        1 UNL1     0.0753
     13 C         5.344068   6.986267   -1.976965 C.ar        1 UNL1     0.0305
     14 C         5.566857   5.718685   -2.668811 C.2        1 UNL1     0.0924
     15 N         6.905869   4.381444   -3.781537 N.pl3        1 UNL1     -0.3170
     16 C         5.679168   3.679111   -3.512858 C.3        1 UNL1     0.1275
     17 N         4.95925   4.54639   -2.50923 N.2        1 UNL1     -0.2557
     18 C         4.843403   3.72456   -4.788449 C.3        1 UNL1     0.0016
     19 C         5.663668   3.141942   -5.928322 C.3        1 UNL1     0.0026
     20 N         6.02906   1.773394   -5.589802 N.3        1 UNL1     -0.3018
     21 C         6.783442   1.62136   -4.343944 C.3        1 UNL1     0.0026
     22 C         5.93902   2.208931   -3.211864 C.3        1 UNL1     0.0016
     23 C         6.549557   1.032325   -6.721412 C.3        1 UNL1     0.0012
     24 C         5.430616   0.737189   -7.73266 C.3        1 UNL1     -0.0339
     25 C         5.636592   1.515747   -9.042423 C.3        1 UNL1     -0.0615
     26 C         5.333776   -0.758125   -7.980528 C.3        1 UNL1     -0.0615
     27 C         5.718492   9.410667   -1.784913 C.ar        1 UNL1     0.1347
     28 C         4.727799   9.571758   -0.832743 C.ar        1 UNL1     0.0342
     29 C         4.105129   8.371943   -0.42791 C.ar        1 UNL1     0.1435
     30 C         4.426281   7.130029   -0.977208 C.ar        1 UNL1     0.0774
     31 O         3.045866   8.375724   0.410514 O.3        1 UNL1     -0.4436
     32 C         2.419473   7.099798   0.209221 C.3        1 UNL1     0.3143
     33 C         3.511273   6.205003   -0.341714 C.2        1 UNL1     0.2504
     34 C         4.174662   10.883317   -0.349056 C.3        1 UNL1     -0.0327
     35 O         2.072326   6.587086   1.501454 O.2        1 UNL1     -0.4528
     36 C         -1.012752   4.439371   0.974476 C.3        1 UNL1     0.0854
     37 C         -1.210545   3.195594   0.025046 C.3        1 UNL1     0.0236
     38 C         -1.728068   1.86431   0.754153 C.3        1 UNL1     0.1131
     39 C         -0.984725   1.337856   2.047427 C.3        1 UNL1     0.0200
     40 C         0.681872   1.31291   2.112755 C.3        1 UNL1     0.0661
     41 C         1.712901   0.662377   0.93318 C.3        1 UNL1     0.0091
     42 C         3.397323   1.170673   0.413795 C.3        1 UNL1     0.0661
     43 C         7.003906   8.089401   -3.478907 C.2        1 UNL1     0.2131
     44 O         7.347103   9.041571   -4.155905 O.2        1 UNL1     -0.2851
     45 O         6.458861   10.519512   -2.189578 O.3        1 UNL1     -0.5056
     46 O         3.614175   5.001707   -0.256017 O.2        1 UNL1     -0.2836
     47 C         5.441828   1.601845   2.07268 C.3        1 UNL1     -0.0566
     48 O         3.947642   -0.205888   0.450464 O.3        1 UNL1     -0.3909
     49 C         0.916926   0.417601   -0.329358 C.3        1 UNL1     -0.0577
     50 O         1.184469   2.555305   2.561727 O.3        1 UNL1     -0.3910
     51 O         -1.143401   4.187258   2.355345 O.3        1 UNL1     -0.3753
     52 C         -0.139871   3.156918   -1.113862 C.3        1 UNL1     -0.0564
     53 O         -2.238654   0.81968   -0.194729 O.3        1 UNL1     -0.4608
     54 C         -2.378059   -0.513446   0.090352 C.2        1 UNL1     0.3042
     55 O         -1.68457   -1.442034   -0.322728 O.2        1 UNL1     -0.2512
     56 C         -3.483034   -0.807765   1.06458 C.3        1 UNL1     0.0332
     57 C         -1.7721   1.90278   3.319856 C.3        1 UNL1     -0.0567
     58 C         1.345536   7.307353   -0.88399 C.3        1 UNL1     0.0210
     59 C         -2.33165   4.707388   2.949815 C.3        1 UNL1     0.0372
     60 C         0.269449   5.172597   0.791439 C.2        1 UNL1     -0.0208
     61 C         1.134553   5.639472   1.692753 C.2        1 UNL1     0.0882
     62 H         4.487901   2.999161   0.760487 H        1 UNL1     0.0365
     63 H         6.077395   4.024808   -0.008789 H        1 UNL1     0.0576
     64 H         8.248944   2.098715   -1.043835 H        1 UNL1     0.0615
     65 H         7.954346   5.207727   -1.115367 H        1 UNL1     0.0622
     66 H         -1.805775   5.140818   0.679291 H        1 UNL1     0.0645
     67 H         -2.087295   3.464208   -0.58954 H        1 UNL1     0.0362
     68 H         -2.71001   2.216655   1.105101 H        1 UNL1     0.0741
     69 H         -1.243538   0.29837   2.198732 H        1 UNL1     0.0359
     70 H         0.828868   0.628847   2.970374 H        1 UNL1     0.0600
     71 H         1.825388   -0.368647   1.322144 H        1 UNL1     0.0348
     72 H         3.240941   1.611428   1.409081 H        1 UNL1     0.0602
     73 H         0.38802   5.418024   -0.234697 H        1 UNL1     0.0628
     74 H         1.116536   5.386736   2.753431 H        1 UNL1     0.1022
     75 H         11.509346   3.808711   -2.619023 H        1 UNL1     0.0279
     76 H         10.49138   3.42286   -3.948746 H        1 UNL1     0.0279
     77 H         11.247069   5.057043   -3.765238 H        1 UNL1     0.0279
     78 H         8.781699   5.601719   -4.678092 H        1 UNL1     0.1553
     79 H         7.610149   4.027615   -4.402606 H        1 UNL1     0.1484
     80 H         3.918211   3.157365   -4.630093 H        1 UNL1     0.0317
     81 H         4.544915   4.751659   -5.024293 H        1 UNL1     0.0317
     82 H         6.556155   3.749212   -6.139512 H        1 UNL1     0.0428
     83 H         5.049627   3.185699   -6.828372 H        1 UNL1     0.0428
     84 H         6.975828   0.578816   -4.072097 H        1 UNL1     0.0428
     85 H         7.784972   2.067613   -4.415454 H        1 UNL1     0.0428
     86 H         6.458819   1.962028   -2.304761 H        1 UNL1     0.0317
     87 H         4.995772   1.656337   -3.122317 H        1 UNL1     0.0317
     88 H         7.311252   1.65103   -7.213673 H        1 UNL1     0.0429
     89 H         7.045522   0.107881   -6.398617 H        1 UNL1     0.0429
     90 H         4.467648   1.031896   -7.299008 H        1 UNL1     0.0308
     91 H         6.67187   1.44413   -9.389082 H        1 UNL1     0.0233
     92 H         4.970257   1.141493   -9.823153 H        1 UNL1     0.0233
     93 H         5.410708   2.583434   -8.933539 H        1 UNL1     0.0233
     94 H         4.843811   -0.950806   -8.941071 H        1 UNL1     0.0233
     95 H         6.335105   -1.196101   -8.019007 H        1 UNL1     0.0233
     96 H         4.760415   -1.256689   -7.193978 H        1 UNL1     0.0233
     97 H         3.103824   10.959106   -0.51274 H        1 UNL1     0.0280
     98 H         4.324452   11.023082   0.729501 H        1 UNL1     0.0280
     99 H         4.665755   11.711417   -0.885875 H        1 UNL1     0.0280
     100 H         5.94272   11.271387   -2.421751 H        1 UNL1     0.2922
     101 H         4.637387   1.013313   2.513317 H        1 UNL1     0.0236
     102 H         5.744095   2.427603   2.715908 H        1 UNL1     0.0236
     103 H         6.310757   0.922879   2.060016 H        1 UNL1     0.0236
     104 H         4.283585   -0.365259   1.354186 H        1 UNL1     0.2098
     105 H         0.688403   1.315862   -0.897439 H        1 UNL1     0.0234
     106 H         1.32791   -0.349799   -0.98519 H        1 UNL1     0.0234
     107 H         0.0   -0.0   0.0 H        1 UNL1     0.0234
     108 H         1.085959   3.190796   1.826734 H        1 UNL1     0.2098
     109 H         -0.186742   4.045211   -1.759192 H        1 UNL1     0.0234
     110 H         0.881723   3.029091   -0.740032 H        1 UNL1     0.0234
     111 H         -0.288948   2.297053   -1.780462 H        1 UNL1     0.0234
     112 H         -4.05938   -1.673053   0.723336 H        1 UNL1     0.0342
     113 H         -3.107734   -0.962179   2.0751 H        1 UNL1     0.0342
     114 H         -4.158559   0.058393   1.089112 H        1 UNL1     0.0342
     115 H         -2.845832   1.675219   3.269822 H        1 UNL1     0.0234
     116 H         -1.400755   1.526012   4.274947 H        1 UNL1     0.0234
     117 H         -1.790088   3.004988   3.372341 H        1 UNL1     0.0234
     118 H         0.321322   7.230044   -0.479001 H        1 UNL1     0.0309
     119 H         1.450239   8.259459   -1.413833 H        1 UNL1     0.0309
     120 H         1.372508   6.527741   -1.653134 H        1 UNL1     0.0309
     121 H         -2.126419   4.872135   4.007215 H        1 UNL1     0.0524
     122 H         -2.627846   5.676203   2.514264 H        1 UNL1     0.0524
     123 H         -3.150181   4.00293   2.832175 H        1 UNL1     0.0524
@<TRIPOS>BOND
     1     1     2    1
     2     1    42    1
     3     2     3    2
     4     3     4    1
     5     4     5    2
     6     5     7    1
     7     6    75    1
     8     6    76    1
     9     6    77    1
    10     7     9   am
    11     9    10    1
    12    10    11    2
    13    10    43    1
    14    11    14    1
    15    11    15    1
    16    12    13   ar
    17    12    27   ar
    18    12    43    1
    19    13    14    1
    20    13    30   ar
    21    14    17    2
    22    15    16    1
    23    16    17    1
    24    16    18    1
    25    16    22    1
    26    18    19    1
    27    19    20    1
    28    20    21    1
    29    21    22    1
    30    23    24    1
    31    23    88    1
    32    23    89    1
    33    24    25    1
    34    24    26    1
    35    24    90    1
    36    25    91    1
    37    25    92    1
    38    25    93    1
    39    26    94    1
    40    26    95    1
    41    26    96    1
    42    27    28   ar
    43    28    29   ar
    44    29    30   ar
    45    29    31    1
    46    30    33    1
    47    31    32    1
    48    32    33    1
    49    32    35    1
    50    34    97    1
    51    34    98    1
    52    34    99    1
    53    35    61    1
    54    36    37    1
    55    36    60    1
    56    37    38    1
    57    38    39    1
    58    39    40    1
    59    40    41    1
    60    41    42    1
    61    45   100    1
    62    47   101    1
    63    47   102    1
    64    47   103    1
    65    48   104    1
    66    49   105    1
    67    49   106    1
    68    49   107    1
    69    50   108    1
    70    51    59    1
    71    52   109    1
    72    52   110    1
    73    52   111    1
    74    53    54    1
    75    54    55    2
    76    54    56    1
    77    56   112    1
    78    56   113    1
    79    56   114    1
    80    57   115    1
    81    57   116    1
    82    57   117    1
    83    58   118    1
    84    58   119    1
    85    58   120    1
    86    59   121    1
    87    59   122    1
    88    59   123    1
    89    60    61    2
    90     1    47    1
    91     1    62    1
    92     2    63    1
    93     3    64    1
    94     4    65    1
    95     5     6    1
    96     7     8    2
    97     9    78    1
    98    15    79    1
    99    18    80    1
   100    18    81    1
   101    19    82    1
   102    19    83    1
   103    20    23    1
   104    21    84    1
   105    21    85    1
   106    22    86    1
   107    22    87    1
   108    27    45    1
   109    28    34    1
   110    32    58    1
   111    33    46    2
   112    36    51    1
   113    36    66    1
   114    37    52    1
   115    37    67    1
   116    38    53    1
   117    38    68    1
   118    42    48    1
   119    42    72    1
   120    43    44    2
   121    60    73    1
   122    61    74    1
   123    39    69    1
   124    39    57    1
   125    40    70    1
   126    40    50    1
   127    41    71    1
   128    41    49    1
