@<TRIPOS>MOLECULE
*****
 123 128 0 0 0
SMALL
GASTEIGER

@<TRIPOS>ATOM
     1 C         4.998809   2.160163   0.597794 C.3        1 UNL1     0.0009
     2 C         6.413942   3.009727   -0.246408 C.2        1 UNL1     -0.0787
     3 C         7.735364   2.963596   -0.836123 C.2        1 UNL1     -0.0649
     4 C         8.554869   4.200677   -1.651229 C.2        1 UNL1     -0.0542
     5 C         9.600561   4.498475   -2.559482 C.2        1 UNL1     0.0115
     6 C         10.821721   3.899473   -3.310007 C.3        1 UNL1     -0.0348
     7 C         9.613704   5.92943   -3.286932 C.2        1 UNL1     0.2441
     8 O         10.347831   6.844907   -2.941267 O.2        1 UNL1     -0.2702
     9 N         8.917387   5.976206   -4.507221 N.am        1 UNL1     -0.2772
     10 C         7.592546   6.27975   -4.292795 C.2        1 UNL1     0.1049
     11 C         6.810263   5.268951   -3.960316 C.2        1 UNL1     0.0801
     12 C         6.094078   7.884075   -3.0936 C.ar        1 UNL1     0.0753
     13 C         5.401532   6.737871   -2.588423 C.ar        1 UNL1     0.0305
     14 C         5.656964   5.397593   -3.111358 C.2        1 UNL1     0.0924
     15 N         7.045517   3.94614   -3.997096 N.pl3        1 UNL1     -0.3170
     16 C         5.810713   3.2717   -3.696021 C.3        1 UNL1     0.1275
     17 N         5.04669   4.248437   -2.835801 N.2        1 UNL1     -0.2557
     18 C         5.029134   3.155414   -5.001131 C.3        1 UNL1     0.0016
     19 C         5.898289   2.445518   -6.026903 C.3        1 UNL1     0.0026
     20 N         6.253219   1.131102   -5.509831 N.3        1 UNL1     -0.3018
     21 C         6.955054   1.137332   -4.224624 C.3        1 UNL1     0.0026
     22 C         6.062076   1.851004   -3.20818 C.3        1 UNL1     0.0016
     23 C         6.822998   0.262515   -6.520549 C.3        1 UNL1     0.0012
     24 C         8.340829   0.479853   -6.624038 C.3        1 UNL1     -0.0339
     25 C         8.837314   0.301332   -8.06823 C.3        1 UNL1     -0.0615
     26 C         8.710355   1.845128   -6.070635 C.3        1 UNL1     -0.0615
     27 C         5.760325   9.170609   -2.676995 C.ar        1 UNL1     0.1347
     28 C         4.730036   9.437969   -1.793212 C.ar        1 UNL1     0.0342
     29 C         4.094491   8.291111   -1.27171 C.ar        1 UNL1     0.1435
     30 C         4.442136   6.994387   -1.652328 C.ar        1 UNL1     0.0774
     31 O         3.000939   8.387981   -0.484458 O.3        1 UNL1     -0.4436
     32 C         2.387363   7.092055   -0.55498 C.3        1 UNL1     0.3143
     33 C         3.504004   6.145892   -0.947536 C.2        1 UNL1     0.2504
     34 C         4.15316   10.793995   -1.495712 C.3        1 UNL1     -0.0327
     35 O         1.987773   6.737025   0.774506 O.2        1 UNL1     -0.4528
     36 C         -1.066027   4.516463   0.385274 C.3        1 UNL1     0.0854
     37 C         -1.220054   3.165192   -0.41339 C.3        1 UNL1     0.0236
     38 C         -1.763774   1.928004   0.450022 C.3        1 UNL1     0.1131
     39 C         -1.073843   1.568249   1.82728 C.3        1 UNL1     0.0200
     40 C         0.588607   1.564843   1.963982 C.3        1 UNL1     0.0661
     41 C         1.670208   0.784421   0.915798 C.3        1 UNL1     0.0091
     42 C         3.373436   1.239554   0.408579 C.3        1 UNL1     0.0661
     43 C         7.119696   7.664103   -4.143352 C.2        1 UNL1     0.2131
     44 O         7.488185   8.529899   -4.916237 O.2        1 UNL1     -0.2851
     45 O         6.513729   10.22814   -3.182415 O.3        1 UNL1     -0.5056
     46 O         3.606805   4.962733   -0.71212 O.2        1 UNL1     -0.2836
     47 C         5.345162   1.885146   2.085875 C.3        1 UNL1     -0.0566
     48 O         3.925833   -0.117925   0.634913 O.3        1 UNL1     -0.3909
     49 C         0.928701   0.381964   -0.339466 C.3        1 UNL1     -0.0577
     50 O         1.068193   2.856519   2.279092 O.3        1 UNL1     -0.3910
     51 O         -1.253811   4.432592   1.779954 O.3        1 UNL1     -0.3753
     52 C         -0.102376   2.997344   -1.493932 C.3        1 UNL1     -0.0564
     53 O         -2.230934   0.77195   -0.385219 O.3        1 UNL1     -0.4608
     54 C         -2.415589   0.795269   -1.742897 C.2        1 UNL1     0.3042
     55 O         -3.482349   0.879052   -2.350222 O.2        1 UNL1     -0.2512
     56 C         -1.133159   0.768466   -2.524797 C.3        1 UNL1     0.0332
     57 C         -1.915652   2.276919   2.988021 C.3        1 UNL1     -0.0567
     58 C         1.359679   7.156867   -1.708754 C.3        1 UNL1     0.0210
     59 C         -0.312467   5.171462   2.557005 C.3        1 UNL1     0.0372
     60 C         0.220538   5.232398   0.167674 C.2        1 UNL1     -0.0208
     61 C         1.045623   5.812068   1.040579 C.2        1 UNL1     0.0882
     62 H         4.443031   3.105318   0.575359 H        1 UNL1     0.0365
     63 H         6.060369   4.042904   -0.246455 H        1 UNL1     0.0576
     64 H         8.279213   2.023092   -0.949212 H        1 UNL1     0.0615
     65 H         7.978608   5.098017   -1.410007 H        1 UNL1     0.0622
     66 H         -1.848039   5.170529   -0.025458 H        1 UNL1     0.0645
     67 H         -2.071012   3.350232   -1.091764 H        1 UNL1     0.0362
     68 H         -2.760637   2.312375   0.714681 H        1 UNL1     0.0741
     69 H         -1.335681   0.552726   2.092913 H        1 UNL1     0.0359
     70 H         0.701488   0.991018   2.903686 H        1 UNL1     0.0600
     71 H         1.769333   -0.190896   1.431443 H        1 UNL1     0.0348
     72 H         3.174073   1.796457   1.335632 H        1 UNL1     0.0602
     73 H         0.381375   5.352546   -0.874892 H        1 UNL1     0.0628
     74 H         0.983823   5.689664   2.122446 H        1 UNL1     0.1022
     75 H         11.648811   3.672782   -2.594768 H        1 UNL1     0.0279
     76 H         10.667187   2.941179   -3.800783 H        1 UNL1     0.0279
     77 H         11.306866   4.624661   -3.979662 H        1 UNL1     0.0279
     78 H         8.953703   5.063788   -4.956945 H        1 UNL1     0.1553
     79 H         7.776315   3.525307   -4.540939 H        1 UNL1     0.1484
     80 H         4.099803   2.604164   -4.813423 H        1 UNL1     0.0317
     81 H         4.737754   4.143901   -5.372133 H        1 UNL1     0.0317
     82 H         6.797044   3.029876   -6.273229 H        1 UNL1     0.0428
     83 H         5.322468   2.374873   -6.950207 H        1 UNL1     0.0428
     84 H         7.138961   0.137025   -3.820425 H        1 UNL1     0.0428
     85 H         7.957368   1.579681   -4.308357 H        1 UNL1     0.0428
     86 H         6.544048   1.720104   -2.257099 H        1 UNL1     0.0317
     87 H         5.117552   1.305759   -3.091231 H        1 UNL1     0.0317
     88 H         6.638485   -0.777354   -6.220681 H        1 UNL1     0.0429
     89 H         6.334901   0.408297   -7.492806 H        1 UNL1     0.0429
     90 H         8.852572   -0.25045   -5.986081 H        1 UNL1     0.0308
     91 H         8.194439   0.830415   -8.778078 H        1 UNL1     0.0233
     92 H         9.862124   0.665427   -8.172191 H        1 UNL1     0.0233
     93 H         8.85382   -0.750883   -8.377108 H        1 UNL1     0.0233
     94 H         9.674984   2.168685   -6.476389 H        1 UNL1     0.0233
     95 H         7.957474   2.582758   -6.362242 H        1 UNL1     0.0233
     96 H         8.782906   1.827165   -4.979588 H        1 UNL1     0.0233
     97 H         3.32083   10.739091   -0.800412 H        1 UNL1     0.0280
     98 H         4.888751   11.463905   -1.031618 H        1 UNL1     0.0280
     99 H         3.79309   11.254942   -2.430043 H        1 UNL1     0.0280
     100 H         7.445304   10.108518   -3.123418 H        1 UNL1     0.2922
     101 H         4.817415   2.594236   2.723316 H        1 UNL1     0.0236
     102 H         6.416781   1.877618   2.282241 H        1 UNL1     0.0236
     103 H         4.991819   0.894352   2.41704 H        1 UNL1     0.0236
     104 H         4.203438   -0.471823   -0.232648 H        1 UNL1     0.2098
     105 H         0.721564   1.202848   -1.021416 H        1 UNL1     0.0234
     106 H         1.369158   -0.455955   -0.879668 H        1 UNL1     0.0234
     107 H         0.0   -0.0   0.0 H        1 UNL1     0.0234
     108 H         2.032326   2.853943   2.123496 H        1 UNL1     0.2098
     109 H         -0.386778   3.439894   -2.458803 H        1 UNL1     0.0234
     110 H         0.866037   3.399608   -1.17754 H        1 UNL1     0.0234
     111 H         0.104046   1.938959   -1.701678 H        1 UNL1     0.0234
     112 H         -1.349798   0.810199   -3.596559 H        1 UNL1     0.0342
     113 H         -0.457658   1.570555   -2.231208 H        1 UNL1     0.0342
     114 H         -0.626604   -0.184853   -2.320473 H        1 UNL1     0.0342
     115 H         -1.864102   1.715379   3.930998 H        1 UNL1     0.0234
     116 H         -1.605148   3.302165   3.198988 H        1 UNL1     0.0234
     117 H         -3.003486   2.281944   2.802193 H        1 UNL1     0.0234
     118 H         0.551465   6.414715   -1.586259 H        1 UNL1     0.0309
     119 H         0.917605   8.150258   -1.835039 H        1 UNL1     0.0309
     120 H         1.798465   6.894821   -2.677725 H        1 UNL1     0.0309
     121 H         -0.246823   4.695796   3.535162 H        1 UNL1     0.0524
     122 H         0.697128   5.15944   2.113596 H        1 UNL1     0.0524
     123 H         -0.638938   6.202173   2.662577 H        1 UNL1     0.0524
@<TRIPOS>BOND
     1     1     2    1
     2     1    42    1
     3     2     3    2
     4     3     4    1
     5     4     5    2
     6     5     7    1
     7     6    75    1
     8     6    76    1
     9     6    77    1
    10     7     9   am
    11     9    10    1
    12    10    11    2
    13    10    43    1
    14    11    14    1
    15    11    15    1
    16    12    13   ar
    17    12    27   ar
    18    12    43    1
    19    13    14    1
    20    13    30   ar
    21    14    17    2
    22    15    16    1
    23    16    17    1
    24    16    18    1
    25    16    22    1
    26    18    19    1
    27    19    20    1
    28    20    21    1
    29    21    22    1
    30    23    24    1
    31    23    88    1
    32    23    89    1
    33    24    25    1
    34    24    26    1
    35    24    90    1
    36    25    91    1
    37    25    92    1
    38    25    93    1
    39    26    94    1
    40    26    95    1
    41    26    96    1
    42    27    28   ar
    43    28    29   ar
    44    29    30   ar
    45    29    31    1
    46    30    33    1
    47    31    32    1
    48    32    33    1
    49    32    35    1
    50    34    97    1
    51    34    98    1
    52    34    99    1
    53    35    61    1
    54    36    37    1
    55    36    60    1
    56    37    38    1
    57    38    39    1
    58    39    40    1
    59    40    41    1
    60    41    42    1
    61    45   100    1
    62    47   101    1
    63    47   102    1
    64    47   103    1
    65    48   104    1
    66    49   105    1
    67    49   106    1
    68    49   107    1
    69    50   108    1
    70    51    59    1
    71    52   109    1
    72    52   110    1
    73    52   111    1
    74    53    54    1
    75    54    55    2
    76    54    56    1
    77    56   112    1
    78    56   113    1
    79    56   114    1
    80    57   115    1
    81    57   116    1
    82    57   117    1
    83    58   118    1
    84    58   119    1
    85    58   120    1
    86    59   121    1
    87    59   122    1
    88    59   123    1
    89    60    61    2
    90     1    47    1
    91     1    62    1
    92     2    63    1
    93     3    64    1
    94     4    65    1
    95     5     6    1
    96     7     8    2
    97     9    78    1
    98    15    79    1
    99    18    80    1
   100    18    81    1
   101    19    82    1
   102    19    83    1
   103    20    23    1
   104    21    84    1
   105    21    85    1
   106    22    86    1
   107    22    87    1
   108    27    45    1
   109    28    34    1
   110    32    58    1
   111    33    46    2
   112    36    51    1
   113    36    66    1
   114    37    52    1
   115    37    67    1
   116    38    53    1
   117    38    68    1
   118    42    48    1
   119    42    72    1
   120    43    44    2
   121    60    73    1
   122    61    74    1
   123    39    69    1
   124    39    57    1
   125    40    70    1
   126    40    50    1
   127    41    71    1
   128    41    49    1
