@<TRIPOS>MOLECULE
*****
 123 128 0 0 0
SMALL
GASTEIGER

@<TRIPOS>ATOM
     1 C         5.155677   1.770909   0.531469 C.3        1 UNL1     0.0009
     2 C         6.594441   2.585842   -0.306912 C.2        1 UNL1     -0.0787
     3 C         7.881353   2.495306   -0.963955 C.2        1 UNL1     -0.0649
     4 C         8.75823   3.736401   -1.710365 C.2        1 UNL1     -0.0542
     5 C         9.783362   4.036155   -2.641133 C.2        1 UNL1     0.0115
     6 C         10.920455   3.418154   -3.500445 C.3        1 UNL1     -0.0348
     7 C         9.875961   5.521357   -3.243287 C.2        1 UNL1     0.2441
     8 O         10.693348   6.345889   -2.857864 O.2        1 UNL1     -0.2702
     9 N         9.132918   5.727758   -4.418633 N.am        1 UNL1     -0.2772
     10 C         7.846261   6.107663   -4.112844 C.2        1 UNL1     0.1049
     11 C         7.003028   5.131586   -3.829201 C.2        1 UNL1     0.0801
     12 C         6.530604   7.704697   -2.70719 C.ar        1 UNL1     0.0753
     13 C         5.773749   6.572135   -2.26778 C.ar        1 UNL1     0.0305
     14 C         5.901267   5.268616   -2.915569 C.2        1 UNL1     0.0924
     15 N         7.132969   3.803598   -3.990723 N.pl3        1 UNL1     -0.3170
     16 C         5.86378   3.197725   -3.686864 C.3        1 UNL1     0.1275
     17 N         5.216131   4.14752   -2.709028 N.2        1 UNL1     -0.2557
     18 C         5.019452   3.255986   -4.956281 C.3        1 UNL1     0.0016
     19 C         5.78534   2.578254   -6.081308 C.3        1 UNL1     0.0026
     20 N         6.059247   1.200464   -5.696993 N.3        1 UNL1     -0.3018
     21 C         6.81473   1.040526   -4.452793 C.3        1 UNL1     0.0026
     22 C         6.025002   1.724592   -3.33553 C.3        1 UNL1     0.0016
     23 C         6.515274   0.385794   -6.805594 C.3        1 UNL1     0.0012
     24 C         5.366741   0.129746   -7.794061 C.3        1 UNL1     -0.0339
     25 C         5.386151   1.140301   -8.952706 C.3        1 UNL1     -0.0615
     26 C         5.423939   -1.301356   -8.299487 C.3        1 UNL1     -0.0615
     27 C         6.316273   8.970066   -2.165875 C.ar        1 UNL1     0.1347
     28 C         5.349327   9.232731   -1.211897 C.ar        1 UNL1     0.0342
     29 C         4.649907   8.09387   -0.759159 C.ar        1 UNL1     0.1435
     30 C         4.87885   6.814151   -1.266233 C.ar        1 UNL1     0.0774
     31 O         3.6025   8.200441   0.087357 O.3        1 UNL1     -0.4436
     32 C         2.887605   6.964629   -0.06286 C.3        1 UNL1     0.3143
     33 C         3.909207   5.977596   -0.590412 C.2        1 UNL1     0.2504
     34 C         4.893052   10.595628   -0.770961 C.3        1 UNL1     -0.0327
     35 O         2.519899   6.522958   1.24976 O.2        1 UNL1     -0.4528
     36 C         -0.711237   4.576665   0.825744 C.3        1 UNL1     0.0854
     37 C         -1.004411   3.316919   -0.076815 C.3        1 UNL1     0.0236
     38 C         -1.604503   2.051121   0.703818 C.3        1 UNL1     0.1131
     39 C         -0.885305   1.520325   2.008915 C.3        1 UNL1     0.0200
     40 C         0.776225   1.382427   2.061255 C.3        1 UNL1     0.0661
     41 C         1.74726   0.621004   0.897237 C.3        1 UNL1     0.0091
     42 C         3.456999   0.99293   0.345996 C.3        1 UNL1     0.0661
     43 C         7.489354   7.50423   -3.822032 C.2        1 UNL1     0.2131
     44 O         7.889998   8.405956   -4.535553 O.2        1 UNL1     -0.2851
     45 O         7.126843   10.010092   -2.616162 O.3        1 UNL1     -0.5056
     46 O         3.929922   4.773827   -0.462493 O.2        1 UNL1     -0.2836
     47 C         5.544071   1.339696   1.971325 C.3        1 UNL1     -0.0566
     48 O         3.911585   -0.416268   0.427416 O.3        1 UNL1     -0.3909
     49 C         0.922781   0.387621   -0.349062 C.3        1 UNL1     -0.0577
     50 O         1.367982   2.602091   2.461214 O.3        1 UNL1     -0.3910
     51 O         -0.844073   4.382944   2.215801 O.3        1 UNL1     -0.3753
     52 C         0.048743   3.164195   -1.222456 C.3        1 UNL1     -0.0564
     53 O         -2.195989   1.011586   -0.202735 O.3        1 UNL1     -0.4608
     54 C         -2.414481   -0.300258   0.127802 C.2        1 UNL1     0.3042
     55 O         -1.834583   -1.289448   -0.31836 O.2        1 UNL1     -0.2512
     56 C         -3.450465   -0.485855   1.199718 C.3        1 UNL1     0.0332
     57 C         -1.618174   2.182804   3.26677 C.3        1 UNL1     -0.0567
     58 C         1.81881   7.207405   -1.153853 C.3        1 UNL1     0.0210
     59 C         -1.206456   5.550383   2.951755 C.3        1 UNL1     0.0372
     60 C         0.616366   5.21251   0.6059 C.2        1 UNL1     -0.0208
     61 C         1.521212   5.649827   1.482685 C.2        1 UNL1     0.0882
     62 H         4.674565   2.752632   0.617852 H        1 UNL1     0.0365
     63 H         6.322543   3.638123   -0.200867 H        1 UNL1     0.0576
     64 H         8.345045   1.531153   -1.184199 H        1 UNL1     0.0615
     65 H         8.26448   4.648651   -1.364685 H        1 UNL1     0.0622
     66 H         -1.457206   5.320484   0.512199 H        1 UNL1     0.0645
     67 H         -1.867144   3.623768   -0.693334 H        1 UNL1     0.0362
     68 H         -2.556019   2.482702   1.050052 H        1 UNL1     0.0741
     69 H         -1.213439   0.50721   2.19953 H        1 UNL1     0.0359
     70 H         0.884986   0.720434   2.941594 H        1 UNL1     0.0600
     71 H         1.792663   -0.401006   1.321963 H        1 UNL1     0.0348
     72 H         3.342056   1.478198   1.326108 H        1 UNL1     0.0602
     73 H         0.740509   5.412884   -0.429323 H        1 UNL1     0.0628
     74 H         1.497248   5.436424   2.551854 H        1 UNL1     0.1022
     75 H         10.969045   2.312717   -3.349836 H        1 UNL1     0.0279
     76 H         10.813903   3.503094   -4.579566 H        1 UNL1     0.0279
     77 H         11.921809   3.726726   -3.166119 H        1 UNL1     0.0279
     78 H         9.07862   4.858837   -4.94599 H        1 UNL1     0.1553
     79 H         7.804491   3.380247   -4.604537 H        1 UNL1     0.1484
     80 H         4.059157   2.760097   -4.770018 H        1 UNL1     0.0317
     81 H         4.789878   4.292342   -5.226305 H        1 UNL1     0.0317
     82 H         6.715201   3.114502   -6.321534 H        1 UNL1     0.0428
     83 H         5.166122   2.632699   -6.977218 H        1 UNL1     0.0428
     84 H         6.937784   -0.002619   -4.145355 H        1 UNL1     0.0428
     85 H         7.843784   1.413611   -4.548567 H        1 UNL1     0.0428
     86 H         6.536295   1.474384   -2.424507 H        1 UNL1     0.0317
     87 H         5.046959   1.242088   -3.218403 H        1 UNL1     0.0317
     88 H         7.31024   0.933967   -7.327925 H        1 UNL1     0.0429
     89 H         6.952671   -0.557458   -6.453837 H        1 UNL1     0.0429
     90 H         4.410566   0.222761   -7.26558 H        1 UNL1     0.0308
     91 H         6.337715   1.109038   -9.491827 H        1 UNL1     0.0233
     92 H         4.570884   0.941568   -9.652316 H        1 UNL1     0.0233
     93 H         5.249143   2.172667   -8.608782 H        1 UNL1     0.0233
     94 H         4.732598   -1.433413   -9.138799 H        1 UNL1     0.0233
     95 H         6.432403   -1.532436   -8.653839 H        1 UNL1     0.0233
     96 H         5.15402   -2.01299   -7.514192 H        1 UNL1     0.0233
     97 H         4.094855   10.540317   -0.036759 H        1 UNL1     0.0280
     98 H         5.699865   11.168288   -0.295179 H        1 UNL1     0.0280
     99 H         4.522764   11.160569   -1.642066 H        1 UNL1     0.0280
     100 H         6.65855   10.759055   -2.940783 H        1 UNL1     0.2922
     101 H         4.679822   0.900788   2.469412 H        1 UNL1     0.0236
     102 H         5.987063   2.145696   2.555368 H        1 UNL1     0.0236
     103 H         6.304057   0.540565   1.973502 H        1 UNL1     0.0236
     104 H         4.32565   -0.542465   1.303541 H        1 UNL1     0.2098
     105 H         0.710538   1.286765   -0.922042 H        1 UNL1     0.0234
     106 H         1.299964   -0.397554   -1.004164 H        1 UNL1     0.0234
     107 H         0.0   -0.0   0.0 H        1 UNL1     0.0234
     108 H         1.168751   3.261844   1.769259 H        1 UNL1     0.2098
     109 H         1.071443   3.054558   -0.835448 H        1 UNL1     0.0234
     110 H         -0.175121   2.337706   -1.905496 H        1 UNL1     0.0234
     111 H         0.070318   4.048712   -1.872925 H        1 UNL1     0.0234
     112 H         -3.572374   -1.550929   1.419043 H        1 UNL1     0.0342
     113 H         -3.210597   0.073983   2.102429 H        1 UNL1     0.0342
     114 H         -4.409525   -0.108488   0.818978 H        1 UNL1     0.0342
     115 H         -2.681401   1.90929   3.310655 H        1 UNL1     0.0234
     116 H         -1.172064   1.921994   4.228546 H        1 UNL1     0.0234
     117 H         -1.683373   3.282951   3.208739 H        1 UNL1     0.0234
     118 H         0.912637   7.689081   -0.746613 H        1 UNL1     0.0309
     119 H         2.191267   7.799198   -1.996029 H        1 UNL1     0.0309
     120 H         1.437554   6.274699   -1.583748 H        1 UNL1     0.0309
     121 H         -0.41048   6.28294   2.820836 H        1 UNL1     0.0524
     122 H         -2.140354   6.00518   2.581576 H        1 UNL1     0.0524
     123 H         -1.324711   5.309447   4.004399 H        1 UNL1     0.0524
@<TRIPOS>BOND
     1     1     2    1
     2     1    42    1
     3     2     3    2
     4     3     4    1
     5     4     5    2
     6     5     7    1
     7     6    75    1
     8     6    76    1
     9     6    77    1
    10     7     9   am
    11     9    10    1
    12    10    11    2
    13    10    43    1
    14    11    14    1
    15    11    15    1
    16    12    13   ar
    17    12    27   ar
    18    12    43    1
    19    13    14    1
    20    13    30   ar
    21    14    17    2
    22    15    16    1
    23    16    17    1
    24    16    18    1
    25    16    22    1
    26    18    19    1
    27    19    20    1
    28    20    21    1
    29    21    22    1
    30    23    24    1
    31    23    88    1
    32    23    89    1
    33    24    25    1
    34    24    26    1
    35    24    90    1
    36    25    91    1
    37    25    92    1
    38    25    93    1
    39    26    94    1
    40    26    95    1
    41    26    96    1
    42    27    28   ar
    43    28    29   ar
    44    29    30   ar
    45    29    31    1
    46    30    33    1
    47    31    32    1
    48    32    33    1
    49    32    35    1
    50    34    97    1
    51    34    98    1
    52    34    99    1
    53    35    61    1
    54    36    37    1
    55    36    60    1
    56    37    38    1
    57    38    39    1
    58    39    40    1
    59    40    41    1
    60    41    42    1
    61    45   100    1
    62    47   101    1
    63    47   102    1
    64    47   103    1
    65    48   104    1
    66    49   105    1
    67    49   106    1
    68    49   107    1
    69    50   108    1
    70    51    59    1
    71    52   109    1
    72    52   110    1
    73    52   111    1
    74    53    54    1
    75    54    55    2
    76    54    56    1
    77    56   112    1
    78    56   113    1
    79    56   114    1
    80    57   115    1
    81    57   116    1
    82    57   117    1
    83    58   118    1
    84    58   119    1
    85    58   120    1
    86    59   121    1
    87    59   122    1
    88    59   123    1
    89    60    61    2
    90     1    47    1
    91     1    62    1
    92     2    63    1
    93     3    64    1
    94     4    65    1
    95     5     6    1
    96     7     8    2
    97     9    78    1
    98    15    79    1
    99    18    80    1
   100    18    81    1
   101    19    82    1
   102    19    83    1
   103    20    23    1
   104    21    84    1
   105    21    85    1
   106    22    86    1
   107    22    87    1
   108    27    45    1
   109    28    34    1
   110    32    58    1
   111    33    46    2
   112    36    51    1
   113    36    66    1
   114    37    52    1
   115    37    67    1
   116    38    53    1
   117    38    68    1
   118    42    48    1
   119    42    72    1
   120    43    44    2
   121    60    73    1
   122    61    74    1
   123    39    69    1
   124    39    57    1
   125    40    70    1
   126    40    50    1
   127    41    71    1
   128    41    49    1
