@<TRIPOS>MOLECULE
*****
 123 128 0 0 0
SMALL
GASTEIGER

@<TRIPOS>ATOM
     1 C         -4.041027   0.176382   0.814561 C.3        1 UNL1     0.0009
     2 C         -5.447821   0.095193   -0.39017 C.2        1 UNL1     -0.0787
     3 C         -6.426135   0.759472   -1.225444 C.2        1 UNL1     -0.0649
     4 C         -7.503595   0.056597   -2.326082 C.2        1 UNL1     -0.0542
     5 C         -8.327067   0.290088   -3.454999 C.2        1 UNL1     0.0115
     6 C         -8.930546   1.396873   -4.362834 C.3        1 UNL1     -0.0348
     7 C         -8.819588   -0.962608   -4.329734 C.2        1 UNL1     0.2441
     8 O         -9.947245   -1.42962   -4.247174 O.2        1 UNL1     -0.2702
     9 N         -7.958466   -1.321676   -5.381253 N.am        1 UNL1     -0.2772
     10 C         -7.006972   -2.212285   -4.939895 C.2        1 UNL1     0.1049
     11 C         -5.952189   -1.688435   -4.342203 C.2        1 UNL1     0.0801
     12 C         -6.726156   -4.340243   -3.655267 C.ar        1 UNL1     0.0753
     13 C         -5.727141   -3.655946   -2.892171 C.ar        1 UNL1     0.0305
     14 C         -5.216193   -2.348628   -3.298253 C.2        1 UNL1     0.0924
     15 N         -5.544808   -0.409439   -4.273385 N.pl3        1 UNL1     -0.3170
     16 C         -4.246445   -0.394582   -3.653476 C.3        1 UNL1     0.1275
     17 N         -4.233221   -1.621539   -2.77477 N.2        1 UNL1     -0.2557
     18 C         -3.218189   -0.648976   -4.751508 C.3        1 UNL1     0.0016
     19 C         -3.404607   0.39272   -5.843161 C.3        1 UNL1     0.0026
     20 N         -3.232671   1.716481   -5.260819 N.3        1 UNL1     -0.3018
     21 C         -4.137712   2.030855   -4.153373 C.3        1 UNL1     0.0026
     22 C         -3.930357   0.974722   -3.066413 C.3        1 UNL1     0.0016
     23 C         -3.09303   2.757927   -6.259085 C.3        1 UNL1     0.0012
     24 C         -2.163365   3.870757   -5.750078 C.3        1 UNL1     -0.0339
     25 C         -0.725111   3.67839   -6.258485 C.3        1 UNL1     -0.0615
     26 C         -2.71679   5.230451   -6.13961 C.3        1 UNL1     -0.0615
     27 C         -7.12062   -5.636045   -3.330593 C.ar        1 UNL1     0.1347
     28 C         -6.561535   -6.361362   -2.293583 C.ar        1 UNL1     0.0342
     29 C         -5.615035   -5.649885   -1.526052 C.ar        1 UNL1     0.1435
     30 C         -5.236249   -4.338824   -1.817361 C.ar        1 UNL1     0.0774
     31 O         -4.901637   -6.253574   -0.550537 O.3        1 UNL1     -0.4436
     32 C         -3.7687   -5.395943   -0.346101 C.3        1 UNL1     0.3143
     33 C         -4.20773   -4.03402   -0.844731 C.2        1 UNL1     0.2504
     34 C         -6.750831   -7.831662   -2.043613 C.3        1 UNL1     -0.0327
     35 O         -3.572715   -5.279021   1.068527 O.2        1 UNL1     -0.4528
     36 C         0.152897   -4.746142   1.56243 C.3        1 UNL1     0.0854
     37 C         1.085028   -3.619084   0.97218 C.3        1 UNL1     0.0236
     38 C         1.914154   -2.787193   2.064083 C.3        1 UNL1     0.1131
     39 C         1.164273   -2.155766   3.305553 C.3        1 UNL1     0.0200
     40 C         -0.295536   -1.374517   3.102961 C.3        1 UNL1     0.0661
     41 C         -0.627385   -0.170788   1.954691 C.3        1 UNL1     0.0091
     42 C         -2.18099   0.229086   1.064852 C.3        1 UNL1     0.0661
     43 C         -7.264187   -3.657802   -4.858204 C.2        1 UNL1     0.2131
     44 O         -7.794892   -4.244406   -5.783939 O.2        1 UNL1     -0.2851
     45 O         -8.131614   -6.213489   -4.096025 O.3        1 UNL1     -0.5056
     46 O         -3.81317   -2.942387   -0.500473 O.2        1 UNL1     -0.2836
     47 C         -4.559719   0.571136   2.2235 C.3        1 UNL1     -0.0566
     48 O         -2.091724   1.685494   1.329473 O.3        1 UNL1     -0.3909
     49 C         0.484874   -0.153971   0.929952 C.3        1 UNL1     -0.0577
     50 O         -1.368164   -2.292924   3.163975 O.3        1 UNL1     -0.3910
     51 O         0.028368   -4.769926   2.96648 O.3        1 UNL1     -0.3753
     52 C         0.451299   -2.939318   -0.2853 C.3        1 UNL1     -0.0564
     53 O         3.035342   -1.979085   1.479084 O.3        1 UNL1     -0.4608
     54 C         3.20122   -0.626675   1.625377 C.2        1 UNL1     0.3042
     55 O         2.926801   0.057188   2.610702 O.2        1 UNL1     -0.2512
     56 C         3.845157   0.032088   0.438746 C.3        1 UNL1     0.0332
     57 C         1.296366   -3.184516   4.523091 C.3        1 UNL1     -0.0567
     58 C         -2.646281   -5.926727   -1.26804 C.3        1 UNL1     0.0210
     59 C         0.822615   -3.805124   3.655097 C.3        1 UNL1     0.0372
     60 C         -1.228233   -4.773981   1.008476 C.2        1 UNL1     -0.0208
     61 C         -2.404034   -4.905459   1.624066 C.2        1 UNL1     0.0882
     62 H         -3.987398   -0.918836   0.796353 H        1 UNL1     0.0365
     63 H         -5.613276   -0.98316   -0.437587 H        1 UNL1     0.0576
     64 H         -6.440125   1.845947   -1.33717 H        1 UNL1     0.0615
     65 H         -7.471897   -1.007848   -2.078221 H        1 UNL1     0.0622
     66 H         0.623594   -5.687529   1.245759 H        1 UNL1     0.0645
     67 H         1.890356   -4.176594   0.463073 H        1 UNL1     0.0362
     68 H         2.535205   -3.595827   2.478725 H        1 UNL1     0.0741
     69 H         1.789194   -1.383333   3.733606 H        1 UNL1     0.0359
     70 H         -0.350227   -0.821374   4.060094 H        1 UNL1     0.0600
     71 H         -0.389241   0.73355   2.548339 H        1 UNL1     0.0348
     72 H         -2.478077   -0.362834   1.942739 H        1 UNL1     0.0602
     73 H         -1.178848   -4.797359   -0.051836 H        1 UNL1     0.0628
     74 H         -2.546693   -4.833947   2.702848 H        1 UNL1     0.1022
     75 H         -9.65339   0.955824   -5.090849 H        1 UNL1     0.0279
     76 H         -9.531013   2.156631   -3.86758 H        1 UNL1     0.0279
     77 H         -8.187445   1.844229   -5.039129 H        1 UNL1     0.0279
     78 H         -7.470543   -0.495516   -5.721058 H        1 UNL1     0.1553
     79 H         -5.855611   0.308668   -4.901602 H        1 UNL1     0.1484
     80 H         -2.212147   -0.598958   -4.317754 H        1 UNL1     0.0317
     81 H         -3.330607   -1.656082   -5.167142 H        1 UNL1     0.0317
     82 H         -4.38578   0.299539   -6.331556 H        1 UNL1     0.0428
     83 H         -2.662763   0.191753   -6.616679 H        1 UNL1     0.0428
     84 H         -3.935218   2.997793   -3.682376 H        1 UNL1     0.0428
     85 H         -5.181191   2.110504   -4.488225 H        1 UNL1     0.0428
     86 H         -4.506364   1.309535   -2.223736 H        1 UNL1     0.0317
     87 H         -2.897533   1.012817   -2.699099 H        1 UNL1     0.0317
     88 H         -2.645667   2.312358   -7.157211 H        1 UNL1     0.0429
     89 H         -4.070273   3.161998   -6.553187 H        1 UNL1     0.0429
     90 H         -2.151213   3.855199   -4.653801 H        1 UNL1     0.0308
     91 H         -0.077994   4.50202   -5.942296 H        1 UNL1     0.0233
     92 H         -0.30958   2.735785   -5.894562 H        1 UNL1     0.0233
     93 H         -0.671511   3.633863   -7.353007 H        1 UNL1     0.0233
     94 H         -2.027143   5.737182   -6.82331 H        1 UNL1     0.0233
     95 H         -3.67432   5.110666   -6.65415 H        1 UNL1     0.0233
     96 H         -2.864417   5.867272   -5.262893 H        1 UNL1     0.0233
     97 H         -7.776899   -8.144804   -2.21201 H        1 UNL1     0.0280
     98 H         -6.135086   -8.447693   -2.711909 H        1 UNL1     0.0280
     99 H         -6.484984   -8.065764   -0.999766 H        1 UNL1     0.0280
     100 H         -8.625097   -5.604258   -4.61654 H        1 UNL1     0.2922
     101 H         -4.139924   -0.101118   2.971499 H        1 UNL1     0.0236
     102 H         -5.646523   0.620442   2.281881 H        1 UNL1     0.0236
     103 H         -4.216281   1.574789   2.525036 H        1 UNL1     0.0236
     104 H         -1.551908   1.806365   2.135054 H        1 UNL1     0.2098
     105 H         1.207751   0.646692   1.064855 H        1 UNL1     0.0234
     106 H         0.996968   -1.107013   0.798048 H        1 UNL1     0.0234
     107 H         0.0   0.0   -0.0 H        1 UNL1     0.0234
     108 H         -1.092066   -3.022831   3.75115 H        1 UNL1     0.2098
     109 H         0.166664   -3.670765   -1.054508 H        1 UNL1     0.0234
     110 H         -0.409953   -2.306845   -0.044539 H        1 UNL1     0.0234
     111 H         1.156764   -2.253829   -0.773532 H        1 UNL1     0.0234
     112 H         3.777709   -0.624883   -0.433713 H        1 UNL1     0.0342
     113 H         3.411746   1.008408   0.227095 H        1 UNL1     0.0342
     114 H         4.909624   0.182525   0.665556 H        1 UNL1     0.0342
     115 H         1.731531   -2.709939   5.41337 H        1 UNL1     0.0234
     116 H         0.351017   -3.640902   4.823221 H        1 UNL1     0.0234
     117 H         2.022029   -3.995003   4.337445 H        1 UNL1     0.0234
     118 H         -2.530367   -5.310777   -2.176983 H        1 UNL1     0.0309
     119 H         -1.678025   -6.006803   -0.763787 H        1 UNL1     0.0309
     120 H         -2.864837   -6.924103   -1.665005 H        1 UNL1     0.0309
     121 H         1.745365   -4.296507   3.962397 H        1 UNL1     0.0524
     122 H         1.098532   -2.953731   3.010863 H        1 UNL1     0.0524
     123 H         0.289585   -3.431097   4.524623 H        1 UNL1     0.0524
@<TRIPOS>BOND
     1     1     2    1
     2     1    42    1
     3     2     3    2
     4     3     4    1
     5     4     5    2
     6     5     7    1
     7     6    75    1
     8     6    76    1
     9     6    77    1
    10     7     9   am
    11     9    10    1
    12    10    11    2
    13    10    43    1
    14    11    14    1
    15    11    15    1
    16    12    13   ar
    17    12    27   ar
    18    12    43    1
    19    13    14    1
    20    13    30   ar
    21    14    17    2
    22    15    16    1
    23    16    17    1
    24    16    18    1
    25    16    22    1
    26    18    19    1
    27    19    20    1
    28    20    21    1
    29    21    22    1
    30    23    24    1
    31    23    88    1
    32    23    89    1
    33    24    25    1
    34    24    26    1
    35    24    90    1
    36    25    91    1
    37    25    92    1
    38    25    93    1
    39    26    94    1
    40    26    95    1
    41    26    96    1
    42    27    28   ar
    43    28    29   ar
    44    29    30   ar
    45    29    31    1
    46    30    33    1
    47    31    32    1
    48    32    33    1
    49    32    35    1
    50    34    97    1
    51    34    98    1
    52    34    99    1
    53    35    61    1
    54    36    37    1
    55    36    60    1
    56    37    38    1
    57    38    39    1
    58    39    40    1
    59    40    41    1
    60    41    42    1
    61    45   100    1
    62    47   101    1
    63    47   102    1
    64    47   103    1
    65    48   104    1
    66    49   105    1
    67    49   106    1
    68    49   107    1
    69    50   108    1
    70    51    59    1
    71    52   109    1
    72    52   110    1
    73    52   111    1
    74    53    54    1
    75    54    55    2
    76    54    56    1
    77    56   112    1
    78    56   113    1
    79    56   114    1
    80    57   115    1
    81    57   116    1
    82    57   117    1
    83    58   118    1
    84    58   119    1
    85    58   120    1
    86    59   121    1
    87    59   122    1
    88    59   123    1
    89    60    61    2
    90     1    47    1
    91     1    62    1
    92     2    63    1
    93     3    64    1
    94     4    65    1
    95     5     6    1
    96     7     8    2
    97     9    78    1
    98    15    79    1
    99    18    80    1
   100    18    81    1
   101    19    82    1
   102    19    83    1
   103    20    23    1
   104    21    84    1
   105    21    85    1
   106    22    86    1
   107    22    87    1
   108    27    45    1
   109    28    34    1
   110    32    58    1
   111    33    46    2
   112    36    51    1
   113    36    66    1
   114    37    52    1
   115    37    67    1
   116    38    53    1
   117    38    68    1
   118    42    48    1
   119    42    72    1
   120    43    44    2
   121    60    73    1
   122    61    74    1
   123    39    69    1
   124    39    57    1
   125    40    70    1
   126    40    50    1
   127    41    71    1
   128    41    49    1
