@<TRIPOS>MOLECULE
*****
 123 128 0 0 0
SMALL
GASTEIGER

@<TRIPOS>ATOM
     1 C         1.367698   -3.051844   4.337617 C.3        1 UNL1     0.0009
     2 C         2.699226   -4.048366   5.156771 C.2        1 UNL1     -0.0787
     3 C         3.289429   -5.330001   5.48099 C.2        1 UNL1     -0.0649
     4 C         4.760376   -5.630087   6.26369 C.2        1 UNL1     -0.0542
     5 C         5.777883   -6.588218   6.495518 C.2        1 UNL1     0.0115
     6 C         6.160455   -8.083216   6.316801 C.3        1 UNL1     -0.0348
     7 C         7.204236   -6.090734   7.038671 C.2        1 UNL1     0.2441
     8 O         7.546813   -6.202145   8.207754 O.2        1 UNL1     -0.2702
     9 N         8.132714   -5.758472   6.036832 N.am        1 UNL1     -0.2772
     10 C         7.994233   -4.438896   5.672324 C.2        1 UNL1     0.1049
     11 C         7.047115   -4.174948   4.790552 C.2        1 UNL1     0.0801
     12 C         7.813612   -2.129018   6.615285 C.ar        1 UNL1     0.0753
     13 C         6.658323   -1.965509   5.786321 C.ar        1 UNL1     0.0305
     14 C         6.316295   -2.93735   4.750179 C.2        1 UNL1     0.0924
     15 N         6.323776   -5.009056   4.02402 N.pl3        1 UNL1     -0.3170
     16 C         5.550128   -4.208524   3.112498 C.3        1 UNL1     0.1275
     17 N         5.352209   -2.89824   3.834791 N.2        1 UNL1     -0.2557
     18 C         6.441205   -3.900476   1.913002 C.3        1 UNL1     0.0016
     19 C         6.940324   -5.212206   1.328335 C.3        1 UNL1     0.0026
     20 N         5.791463   -6.016145   0.934853 N.3        1 UNL1     -0.3018
     21 C         4.842795   -6.313034   2.010146 C.3        1 UNL1     0.0026
     22 C         4.350756   -4.981417   2.579873 C.3        1 UNL1     0.0016
     23 C         6.15226   -7.144892   0.100347 C.3        1 UNL1     0.0012
     24 C         6.591808   -6.66636   -1.292335 C.3        1 UNL1     -0.0339
     25 C         8.120969   -6.53573   -1.385385 C.3        1 UNL1     -0.0615
     26 C         6.044353   -7.597775   -2.359828 C.3        1 UNL1     -0.0615
     27 C         8.200572   -1.140565   7.517138 C.ar        1 UNL1     0.1347
     28 C         7.537011   0.066088   7.650273 C.ar        1 UNL1     0.0342
     29 C         6.374518   0.184594   6.859241 C.ar        1 UNL1     0.1435
     30 C         5.954261   -0.812178   5.977736 C.ar        1 UNL1     0.0774
     31 O         5.680977   1.342109   6.794706 O.3        1 UNL1     -0.4436
     32 C         4.907324   1.234663   5.590218 C.3        1 UNL1     0.3143
     33 C         4.787373   -0.252942   5.327817 C.2        1 UNL1     0.2504
     34 C         8.033586   1.266612   8.406749 C.3        1 UNL1     -0.0327
     35 O         3.589663   1.713677   5.886136 O.2        1 UNL1     -0.4528
     36 C         2.2592   3.170197   2.64322 C.3        1 UNL1     0.0854
     37 C         2.086602   2.47761   1.236786 C.3        1 UNL1     0.0236
     38 C         0.607172   2.554311   0.622663 C.3        1 UNL1     0.1131
     39 C         -0.631952   2.115731   1.502714 C.3        1 UNL1     0.0200
     40 C         -0.560982   0.732156   2.431756 C.3        1 UNL1     0.0661
     41 C         -0.062108   -0.798744   1.897827 C.3        1 UNL1     0.0091
     42 C         0.798974   -2.148908   2.792813 C.3        1 UNL1     0.0661
     43 C         8.637483   -3.347633   6.419136 C.2        1 UNL1     0.2131
     44 O         9.80657   -3.430062   6.749557 O.2        1 UNL1     -0.2851
     45 O         9.310541   -1.397811   8.319154 O.3        1 UNL1     -0.5056
     46 O         3.913687   -0.845499   4.735024 O.2        1 UNL1     -0.2836
     47 C         0.051981   -3.132609   5.157585 C.3        1 UNL1     -0.0566
     48 O         -0.120698   -3.208283   2.312144 O.3        1 UNL1     -0.3909
     49 C         0.625001   -0.648588   0.558862 C.3        1 UNL1     -0.0577
     50 O         -0.000436   1.008027   3.699592 O.3        1 UNL1     -0.3910
     51 O         1.072176   3.612415   3.261968 O.3        1 UNL1     -0.3753
     52 C         2.975919   1.198256   1.105194 C.3        1 UNL1     -0.0564
     53 O         0.544408   2.211846   -0.837167 O.3        1 UNL1     -0.4608
     54 C         -0.580453   1.818789   -1.514016 C.2        1 UNL1     0.3042
     55 O         -0.816065   0.708987   -1.990109 O.2        1 UNL1     -0.2512
     56 C         -1.631516   2.888157   -1.605851 C.3        1 UNL1     0.0332
     57 C         -1.236893   3.434811   2.175209 C.3        1 UNL1     -0.0567
     58 C         5.756775   1.872576   4.466373 C.3        1 UNL1     0.0210
     59 C         1.23281   4.725176   4.140503 C.3        1 UNL1     0.0372
     60 C         2.996095   2.364563   3.654703 C.2        1 UNL1     -0.0208
     61 C         2.728713   2.138812   4.941672 C.2        1 UNL1     0.0882
     62 H         1.880993   -2.137481   4.658833 H        1 UNL1     0.0365
     63 H         3.268593   -3.259134   5.652154 H        1 UNL1     0.0576
     64 H         2.886108   -6.263332   5.081822 H        1 UNL1     0.0615
     65 H         5.032107   -4.660009   6.688653 H        1 UNL1     0.0622
     66 H         2.887327   4.049553   2.442633 H        1 UNL1     0.0645
     67 H         2.645453   3.131946   0.545345 H        1 UNL1     0.0362
     68 H         0.51203   3.644844   0.507728 H        1 UNL1     0.0741
     69 H         -1.471189   1.919478   0.848823 H        1 UNL1     0.0359
     70 H         -1.638991   0.581903   2.632709 H        1 UNL1     0.0600
     71 H         -1.038305   -1.225142   1.594211 H        1 UNL1     0.0348
     72 H         0.362383   -1.501847   3.56742 H        1 UNL1     0.0602
     73 H         3.919494   2.043763   3.240372 H        1 UNL1     0.0628
     74 H         1.783379   2.383416   5.427213 H        1 UNL1     0.1022
     75 H         5.336765   -8.640652   5.809027 H        1 UNL1     0.0279
     76 H         7.014353   -8.29225   5.676307 H        1 UNL1     0.0279
     77 H         6.229268   -8.62185   7.273274 H        1 UNL1     0.0279
     78 H         7.959842   -6.324748   5.208868 H        1 UNL1     0.1553
     79 H         6.591862   -5.955102   3.823871 H        1 UNL1     0.1484
     80 H         5.864393   -3.327613   1.176875 H        1 UNL1     0.0317
     81 H         7.288203   -3.270962   2.206187 H        1 UNL1     0.0317
     82 H         7.580216   -5.756955   2.038052 H        1 UNL1     0.0428
     83 H         7.575047   -4.969317   0.475586 H        1 UNL1     0.0428
     84 H         3.950455   -6.849086   1.672226 H        1 UNL1     0.0428
     85 H         5.280239   -6.975432   2.769875 H        1 UNL1     0.0428
     86 H         3.564853   -5.233405   3.267512 H        1 UNL1     0.0317
     87 H         3.832484   -4.409144   1.800774 H        1 UNL1     0.0317
     88 H         6.995854   -7.663905   0.573917 H        1 UNL1     0.0429
     89 H         5.329087   -7.867458   0.029226 H        1 UNL1     0.0429
     90 H         6.144721   -5.685464   -1.492756 H        1 UNL1     0.0308
     91 H         8.615746   -7.484952   -1.158945 H        1 UNL1     0.0233
     92 H         8.420385   -6.204113   -2.382375 H        1 UNL1     0.0233
     93 H         8.520188   -5.793527   -0.683534 H        1 UNL1     0.0233
     94 H         6.506385   -7.375779   -3.327857 H        1 UNL1     0.0233
     95 H         6.277079   -8.635565   -2.105283 H        1 UNL1     0.0233
     96 H         4.96052   -7.493988   -2.462304 H        1 UNL1     0.0233
     97 H         7.349584   2.106741   8.332211 H        1 UNL1     0.0280
     98 H         8.143732   1.06305   9.479915 H        1 UNL1     0.0280
     99 H         9.010335   1.579338   8.002696 H        1 UNL1     0.0280
     100 H         9.983704   -0.741458   8.278238 H        1 UNL1     0.2922
     101 H         -0.710908   -2.509836   4.690882 H        1 UNL1     0.0236
     102 H         0.188162   -2.891785   6.21136 H        1 UNL1     0.0236
     103 H         -0.376102   -4.14894   5.154637 H        1 UNL1     0.0236
     104 H         -0.811685   -3.32994   2.99237 H        1 UNL1     0.2098
     105 H         1.612738   -0.197292   0.609049 H        1 UNL1     0.0234
     106 H         0.654994   -1.557408   -0.042033 H        1 UNL1     0.0234
     107 H         0.0   0.0   -0.0 H        1 UNL1     0.0234
     108 H         0.923554   1.288481   3.553453 H        1 UNL1     0.2098
     109 H         2.7367   0.445017   1.868815 H        1 UNL1     0.0234
     110 H         2.927259   0.740636   0.111232 H        1 UNL1     0.0234
     111 H         4.040874   1.430048   1.23969 H        1 UNL1     0.0234
     112 H         -2.501226   2.509301   -2.151212 H        1 UNL1     0.0342
     113 H         -1.918922   3.265178   -0.625496 H        1 UNL1     0.0342
     114 H         -1.215949   3.729512   -2.177331 H        1 UNL1     0.0342
     115 H         -1.5749   4.159266   1.421482 H        1 UNL1     0.0234
     116 H         -2.075672   3.245436   2.847991 H        1 UNL1     0.0234
     117 H         -0.488259   4.031804   2.723925 H        1 UNL1     0.0234
     118 H         5.653654   2.97156   4.441728 H        1 UNL1     0.0309
     119 H         6.818427   1.613828   4.53076 H        1 UNL1     0.0309
     120 H         5.429972   1.565763   3.466787 H        1 UNL1     0.0309
     121 H         1.899218   4.416263   4.945382 H        1 UNL1     0.0524
     122 H         1.696982   5.590623   3.638923 H        1 UNL1     0.0524
     123 H         0.270766   5.02646   4.545217 H        1 UNL1     0.0524
@<TRIPOS>BOND
     1     1     2    1
     2     1    42    1
     3     2     3    2
     4     3     4    1
     5     4     5    2
     6     5     7    1
     7     6    75    1
     8     6    76    1
     9     6    77    1
    10     7     9   am
    11     9    10    1
    12    10    11    2
    13    10    43    1
    14    11    14    1
    15    11    15    1
    16    12    13   ar
    17    12    27   ar
    18    12    43    1
    19    13    14    1
    20    13    30   ar
    21    14    17    2
    22    15    16    1
    23    16    17    1
    24    16    18    1
    25    16    22    1
    26    18    19    1
    27    19    20    1
    28    20    21    1
    29    21    22    1
    30    23    24    1
    31    23    88    1
    32    23    89    1
    33    24    25    1
    34    24    26    1
    35    24    90    1
    36    25    91    1
    37    25    92    1
    38    25    93    1
    39    26    94    1
    40    26    95    1
    41    26    96    1
    42    27    28   ar
    43    28    29   ar
    44    29    30   ar
    45    29    31    1
    46    30    33    1
    47    31    32    1
    48    32    33    1
    49    32    35    1
    50    34    97    1
    51    34    98    1
    52    34    99    1
    53    35    61    1
    54    36    37    1
    55    36    60    1
    56    37    38    1
    57    38    39    1
    58    39    40    1
    59    40    41    1
    60    41    42    1
    61    45   100    1
    62    47   101    1
    63    47   102    1
    64    47   103    1
    65    48   104    1
    66    49   105    1
    67    49   106    1
    68    49   107    1
    69    50   108    1
    70    51    59    1
    71    52   109    1
    72    52   110    1
    73    52   111    1
    74    53    54    1
    75    54    55    2
    76    54    56    1
    77    56   112    1
    78    56   113    1
    79    56   114    1
    80    57   115    1
    81    57   116    1
    82    57   117    1
    83    58   118    1
    84    58   119    1
    85    58   120    1
    86    59   121    1
    87    59   122    1
    88    59   123    1
    89    60    61    2
    90     1    47    1
    91     1    62    1
    92     2    63    1
    93     3    64    1
    94     4    65    1
    95     5     6    1
    96     7     8    2
    97     9    78    1
    98    15    79    1
    99    18    80    1
   100    18    81    1
   101    19    82    1
   102    19    83    1
   103    20    23    1
   104    21    84    1
   105    21    85    1
   106    22    86    1
   107    22    87    1
   108    27    45    1
   109    28    34    1
   110    32    58    1
   111    33    46    2
   112    36    51    1
   113    36    66    1
   114    37    52    1
   115    37    67    1
   116    38    53    1
   117    38    68    1
   118    42    48    1
   119    42    72    1
   120    43    44    2
   121    60    73    1
   122    61    74    1
   123    39    69    1
   124    39    57    1
   125    40    70    1
   126    40    50    1
   127    41    71    1
   128    41    49    1
