@<TRIPOS>MOLECULE
*****
 123 128 0 0 0
SMALL
GASTEIGER

@<TRIPOS>ATOM
     1 C         4.518562   2.839077   1.238543 C.3        1 UNL1     0.0009
     2 C         5.855961   3.95092   0.596511 C.2        1 UNL1     -0.0787
     3 C         7.217888   4.147106   0.146276 C.2        1 UNL1     -0.0649
     4 C         7.906139   5.549245   -0.506927 C.2        1 UNL1     -0.0542
     5 C         8.973038   6.066104   -1.282596 C.2        1 UNL1     0.0115
     6 C         10.338388   5.713753   -1.934508 C.3        1 UNL1     -0.0348
     7 C         8.829859   7.531648   -1.921869 C.2        1 UNL1     0.2441
     8 O         9.375198   8.519719   -1.449802 O.2        1 UNL1     -0.2702
     9 N         8.253077   7.561387   -3.203505 N.am        1 UNL1     -0.2772
     10 C         6.882762   7.645681   -3.111564 C.2        1 UNL1     0.1049
     11 C         6.24109   6.507228   -2.920767 C.2        1 UNL1     0.0801
     12 C         5.044605   8.91496   -1.985756 C.ar        1 UNL1     0.0753
     13 C         4.496126   7.643996   -1.621845 C.ar        1 UNL1     0.0305
     14 C         5.007032   6.398912   -2.190873 C.2        1 UNL1     0.0924
     15 N         6.683561   5.241091   -3.0082 N.pl3        1 UNL1     -0.3170
     16 C         5.547167   4.368423   -2.876626 C.3        1 UNL1     0.1275
     17 N         4.561553   5.154066   -2.046533 N.2        1 UNL1     -0.2557
     18 C         4.920172   4.230704   -4.260683 C.3        1 UNL1     0.0016
     19 C         5.98285   3.735976   -5.228955 C.3        1 UNL1     0.0026
     20 N         6.489415   2.455992   -4.753499 N.3        1 UNL1     -0.3018
     21 C         7.057175   2.474638   -3.403806 C.3        1 UNL1     0.0026
     22 C         5.971365   2.97018   -2.447068 C.3        1 UNL1     0.0016
     23 C         7.281283   1.758643   -5.747125 C.3        1 UNL1     0.0012
     24 C         6.387123   1.251704   -6.889599 C.3        1 UNL1     -0.0339
     25 C         6.89907   -0.083652   -7.454214 C.3        1 UNL1     -0.0615
     26 C         4.948164   1.143365   -6.415848 C.3        1 UNL1     -0.0615
     27 C         4.475173   10.102971   -1.533544 C.ar        1 UNL1     0.1347
     28 C         3.336974   10.147417   -0.74832 C.ar        1 UNL1     0.0342
     29 C         2.843095   8.883207   -0.362287 C.ar        1 UNL1     0.1435
     30 C         3.424389   7.684632   -0.777899 C.ar        1 UNL1     0.0774
     31 O         1.678581   8.757034   0.310762 O.3        1 UNL1     -0.4436
     32 C         1.285547   7.392067   0.102762 C.3        1 UNL1     0.3143
     33 C         2.568901   6.655755   -0.224438 C.2        1 UNL1     0.2504
     34 C         2.528854   11.375977   -0.435778 C.3        1 UNL1     -0.0327
     35 O         0.823075   6.885513   1.360846 O.2        1 UNL1     -0.4528
     36 C         -1.793629   4.264656   0.528944 C.3        1 UNL1     0.0854
     37 C         -1.657521   2.967078   -0.357221 C.3        1 UNL1     0.0236
     38 C         -2.079193   1.60285   0.372725 C.3        1 UNL1     0.1131
     39 C         -1.474345   1.252193   1.791692 C.3        1 UNL1     0.0200
     40 C         0.147614   1.489193   2.100749 C.3        1 UNL1     0.0661
     41 C         1.432333   0.958536   1.128375 C.3        1 UNL1     0.0091
     42 C         3.083108   1.700438   0.828499 C.3        1 UNL1     0.0661
     43 C         6.186424   8.92856   -2.933555 C.2        1 UNL1     0.2131
     44 O         6.485614   9.893676   -3.613095 O.2        1 UNL1     -0.2851
     45 O         5.097428   11.295686   -1.896403 O.3        1 UNL1     -0.5056
     46 O         2.833557   5.48764   -0.047467 O.2        1 UNL1     -0.2836
     47 C         4.761885   2.512212   2.73652 C.3        1 UNL1     -0.0566
     48 O         3.817984   0.428795   1.033435 O.3        1 UNL1     -0.3909
     49 C         0.88497   0.541089   -0.218335 C.3        1 UNL1     -0.0577
     50 O         0.386524   2.81207   2.537373 O.3        1 UNL1     -0.3910
     51 O         -2.096611   4.05261   1.889337 O.3        1 UNL1     -0.3753
     52 C         -0.43048   3.048161   -1.323008 C.3        1 UNL1     -0.0564
     53 O         -2.278125   0.453257   -0.571302 O.3        1 UNL1     -0.4608
     54 C         -1.935394   -0.849719   -0.320866 C.2        1 UNL1     0.3042
     55 O         -0.956954   -1.460244   -0.749531 O.2        1 UNL1     -0.2512
     56 C         -2.864876   -1.543169   0.634071 C.3        1 UNL1     0.0332
     57 C         -2.522677   1.740046   2.89676 C.3        1 UNL1     -0.0567
     58 C         0.373899   7.384884   -1.146388 C.3        1 UNL1     0.0210
     59 C         -3.425693   4.405946   2.269546 C.3        1 UNL1     0.0372
     60 C         -0.620738   5.179978   0.488022 C.2        1 UNL1     -0.0208
     61 C         0.017023   5.812442   1.47392 C.2        1 UNL1     0.0882
     62 H         3.82588   3.688905   1.212182 H        1 UNL1     0.0365
     63 H         5.346129   4.916351   0.618506 H        1 UNL1     0.0576
     64 H         7.910894   3.309891   0.037096 H        1 UNL1     0.0615
     65 H         7.175963   6.329738   -0.276369 H        1 UNL1     0.0622
     66 H         -2.62638   4.821573   0.076822 H        1 UNL1     0.0645
     67 H         -2.459153   3.070581   -1.10904 H        1 UNL1     0.0362
     68 H         -3.144511   1.812568   0.553387 H        1 UNL1     0.0741
     69 H         -1.597333   0.192274   1.970171 H        1 UNL1     0.0359
     70 H         0.260065   0.872319   3.012824 H        1 UNL1     0.0600
     71 H         1.634305   -0.025522   1.595059 H        1 UNL1     0.0348
     72 H         2.712224   2.15231   1.759935 H        1 UNL1     0.0602
     73 H         -0.383156   5.398213   -0.5235 H        1 UNL1     0.0628
     74 H         -0.126551   5.604044   2.534672 H        1 UNL1     0.1022
     75 H         10.994153   5.178651   -1.206036 H        1 UNL1     0.0279
     76 H         10.310978   5.024335   -2.775353 H        1 UNL1     0.0279
     77 H         10.944674   6.603534   -2.159027 H        1 UNL1     0.0279
     78 H         8.474479   6.699856   -3.698301 H        1 UNL1     0.1553
     79 H         7.519375   4.975606   -3.495915 H        1 UNL1     0.1484
     80 H         4.075429   3.533697   -4.202757 H        1 UNL1     0.0317
     81 H         4.513487   5.188321   -4.603067 H        1 UNL1     0.0317
     82 H         6.797865   4.465273   -5.346384 H        1 UNL1     0.0428
     83 H         5.514953   3.646559   -6.209835 H        1 UNL1     0.0428
     84 H         7.356931   1.486782   -3.040353 H        1 UNL1     0.0428
     85 H         7.980961   3.067727   -3.35709 H        1 UNL1     0.0428
     86 H         6.376031   2.844743   -1.459901 H        1 UNL1     0.0317
     87 H         5.117416   2.281933   -2.460642 H        1 UNL1     0.0317
     88 H         8.010073   2.467286   -6.161837 H        1 UNL1     0.0429
     89 H         7.852407   0.936622   -5.296712 H        1 UNL1     0.0429
     90 H         6.381505   1.993136   -7.697349 H        1 UNL1     0.0308
     91 H         7.151893   -0.783739   -6.652303 H        1 UNL1     0.0233
     92 H         6.150249   -0.539994   -8.105848 H        1 UNL1     0.0233
     93 H         7.801559   0.039757   -8.065049 H        1 UNL1     0.0233
     94 H         4.392905   0.444921   -7.051222 H        1 UNL1     0.0233
     95 H         4.919844   0.762401   -5.39114 H        1 UNL1     0.0233
     96 H         4.444059   2.113389   -6.445868 H        1 UNL1     0.0233
     97 H         1.497606   11.279216   -0.761958 H        1 UNL1     0.0280
     98 H         2.485274   11.579485   0.642156 H        1 UNL1     0.0280
     99 H         2.971665   12.248143   -0.944051 H        1 UNL1     0.0280
     100 H         6.02646   11.31371   -1.747416 H        1 UNL1     0.2922
     101 H         4.071592   3.085687   3.354807 H        1 UNL1     0.0236
     102 H         5.798032   2.651879   3.042913 H        1 UNL1     0.0236
     103 H         4.538877   1.458151   2.971925 H        1 UNL1     0.0236
     104 H         3.155085   -0.28268   1.130073 H        1 UNL1     0.2098
     105 H         0.616663   1.368678   -0.870193 H        1 UNL1     0.0234
     106 H         1.500556   -0.179521   -0.756575 H        1 UNL1     0.0234
     107 H         0.0   -0.0   0.0 H        1 UNL1     0.0234
     108 H         1.349423   2.965949   2.483367 H        1 UNL1     0.2098
     109 H         -0.507863   3.89094   -2.024041 H        1 UNL1     0.0234
     110 H         0.528973   3.096164   -0.796806 H        1 UNL1     0.0234
     111 H         -0.346863   2.148763   -1.947538 H        1 UNL1     0.0234
     112 H         -2.524211   -2.568636   0.806439 H        1 UNL1     0.0342
     113 H         -2.965489   -1.001773   1.573545 H        1 UNL1     0.0342
     114 H         -3.859556   -1.592251   0.169996 H        1 UNL1     0.0342
     115 H         -2.529551   1.07802   3.773607 H        1 UNL1     0.0234
     116 H         -2.349682   2.756986   3.254468 H        1 UNL1     0.0234
     117 H         -3.57371   1.668917   2.567802 H        1 UNL1     0.0234
     118 H         -0.677453   7.164668   -0.891104 H        1 UNL1     0.0309
     119 H         0.416276   8.319536   -1.714572 H        1 UNL1     0.0309
     120 H         0.634459   6.588766   -1.85237 H        1 UNL1     0.0309
     121 H         -3.412155   4.644148   3.332764 H        1 UNL1     0.0524
     122 H         -3.790821   5.298136   1.734088 H        1 UNL1     0.0524
     123 H         -4.103531   3.578622   2.079376 H        1 UNL1     0.0524
@<TRIPOS>BOND
     1     1     2    1
     2     1    42    1
     3     2     3    2
     4     3     4    1
     5     4     5    2
     6     5     7    1
     7     6    75    1
     8     6    76    1
     9     6    77    1
    10     7     9   am
    11     9    10    1
    12    10    11    2
    13    10    43    1
    14    11    14    1
    15    11    15    1
    16    12    13   ar
    17    12    27   ar
    18    12    43    1
    19    13    14    1
    20    13    30   ar
    21    14    17    2
    22    15    16    1
    23    16    17    1
    24    16    18    1
    25    16    22    1
    26    18    19    1
    27    19    20    1
    28    20    21    1
    29    21    22    1
    30    23    24    1
    31    23    88    1
    32    23    89    1
    33    24    25    1
    34    24    26    1
    35    24    90    1
    36    25    91    1
    37    25    92    1
    38    25    93    1
    39    26    94    1
    40    26    95    1
    41    26    96    1
    42    27    28   ar
    43    28    29   ar
    44    29    30   ar
    45    29    31    1
    46    30    33    1
    47    31    32    1
    48    32    33    1
    49    32    35    1
    50    34    97    1
    51    34    98    1
    52    34    99    1
    53    35    61    1
    54    36    37    1
    55    36    60    1
    56    37    38    1
    57    38    39    1
    58    39    40    1
    59    40    41    1
    60    41    42    1
    61    45   100    1
    62    47   101    1
    63    47   102    1
    64    47   103    1
    65    48   104    1
    66    49   105    1
    67    49   106    1
    68    49   107    1
    69    50   108    1
    70    51    59    1
    71    52   109    1
    72    52   110    1
    73    52   111    1
    74    53    54    1
    75    54    55    2
    76    54    56    1
    77    56   112    1
    78    56   113    1
    79    56   114    1
    80    57   115    1
    81    57   116    1
    82    57   117    1
    83    58   118    1
    84    58   119    1
    85    58   120    1
    86    59   121    1
    87    59   122    1
    88    59   123    1
    89    60    61    2
    90     1    47    1
    91     1    62    1
    92     2    63    1
    93     3    64    1
    94     4    65    1
    95     5     6    1
    96     7     8    2
    97     9    78    1
    98    15    79    1
    99    18    80    1
   100    18    81    1
   101    19    82    1
   102    19    83    1
   103    20    23    1
   104    21    84    1
   105    21    85    1
   106    22    86    1
   107    22    87    1
   108    27    45    1
   109    28    34    1
   110    32    58    1
   111    33    46    2
   112    36    51    1
   113    36    66    1
   114    37    52    1
   115    37    67    1
   116    38    53    1
   117    38    68    1
   118    42    48    1
   119    42    72    1
   120    43    44    2
   121    60    73    1
   122    61    74    1
   123    39    69    1
   124    39    57    1
   125    40    70    1
   126    40    50    1
   127    41    71    1
   128    41    49    1
