@<TRIPOS>MOLECULE
*****
 123 128 0 0 0
SMALL
GASTEIGER

@<TRIPOS>ATOM
     1 C         1.0386   -1.516131   -4.626948 C.3        1 UNL1     0.0009
     2 C         1.168121   -3.151299   -5.490942 C.2        1 UNL1     -0.0787
     3 C         1.956633   -4.142039   -6.19289 C.2        1 UNL1     -0.0649
     4 C         1.476642   -5.683514   -6.702616 C.2        1 UNL1     -0.0542
     5 C         1.92553   -6.967868   -7.097601 C.2        1 UNL1     0.0115
     6 C         3.181094   -7.794866   -7.488696 C.3        1 UNL1     -0.0348
     7 C         0.890917   -8.194973   -7.069688 C.2        1 UNL1     0.2441
     8 O         0.356239   -8.637587   -8.07703 O.2        1 UNL1     -0.2702
     9 N         0.839561   -8.894459   -5.851397 N.am        1 UNL1     -0.2772
     10 C         -0.076498   -8.315476   -5.003496 C.2        1 UNL1     0.1049
     11 C         0.347919   -7.273393   -4.312007 C.2        1 UNL1     0.0801
     12 C         -2.429654   -7.473033   -4.902111 C.ar        1 UNL1     0.0753
     13 C         -1.891932   -6.270176   -4.343007 C.ar        1 UNL1     0.0305
     14 C         -0.499486   -6.184122   -3.908562 C.2        1 UNL1     0.0924
     15 N         1.594531   -6.802242   -4.137353 N.pl3        1 UNL1     -0.3170
     16 C         1.533433   -5.750255   -3.157636 C.3        1 UNL1     0.1275
     17 N         0.135697   -5.195545   -3.285518 N.2        1 UNL1     -0.2557
     18 C         1.603843   -6.408066   -1.782853 C.3        1 UNL1     0.0016
     19 C         2.862868   -7.257608   -1.714116 C.3        1 UNL1     0.0026
     20 N         4.018101   -6.401377   -1.945059 N.3        1 UNL1     -0.3018
     21 C         4.010421   -5.676735   -3.217538 C.3        1 UNL1     0.0026
     22 C         2.739662   -4.826455   -3.263241 C.3        1 UNL1     0.0016
     23 C         5.272697   -7.043891   -1.607705 C.3        1 UNL1     0.0012
     24 C         5.153353   -8.569001   -1.754512 C.3        1 UNL1     -0.0339
     25 C         3.960739   -8.956714   -2.644123 C.3        1 UNL1     -0.0615
     26 C         6.455566   -9.144784   -2.283182 C.3        1 UNL1     -0.0615
     27 C         -3.785199   -7.586652   -5.201622 C.ar        1 UNL1     0.1347
     28 C         -4.70387   -6.58319   -4.95031 C.ar        1 UNL1     0.0342
     29 C         -4.143733   -5.390629   -4.445129 C.ar        1 UNL1     0.1435
     30 C         -2.782168   -5.249664   -4.17404 C.ar        1 UNL1     0.0774
     31 O         -4.921347   -4.360476   -4.046245 O.3        1 UNL1     -0.4436
     32 C         -4.075602   -3.578097   -3.189817 C.3        1 UNL1     0.3143
     33 C         -2.660592   -3.922004   -3.60897 C.2        1 UNL1     0.2504
     34 C         -6.199631   -6.722159   -5.009362 C.3        1 UNL1     -0.0327
     35 O         -4.286983   -2.201066   -3.525012 O.2        1 UNL1     -0.4528
     36 C         -3.682004   -0.247   -0.327557 C.3        1 UNL1     0.0854
     37 C         -2.397491   -0.205284   0.586669 C.3        1 UNL1     0.0236
     38 C         -1.803983   1.260724   0.851835 C.3        1 UNL1     0.1131
     39 C         -1.527398   2.228359   -0.368597 C.3        1 UNL1     0.0200
     40 C         -0.802059   1.652449   -1.755914 C.3        1 UNL1     0.0661
     41 C         0.619536   0.729404   -1.824211 C.3        1 UNL1     0.0091
     42 C         1.132845   -0.579853   -3.002244 C.3        1 UNL1     0.0661
     43 C         -1.512045   -8.627285   -5.069313 C.2        1 UNL1     0.2131
     44 O         -1.890626   -9.781707   -5.151304 O.2        1 UNL1     -0.2851
     45 O         -4.219391   -8.774762   -5.785839 O.3        1 UNL1     -0.5056
     46 O         -1.661751   -3.243914   -3.517522 O.2        1 UNL1     -0.2836
     47 C         1.05865   -0.357376   -5.65984 C.3        1 UNL1     -0.0566
     48 O         2.487546   -0.015658   -3.215752 O.3        1 UNL1     -0.3909
     49 C         0.940233   0.223718   -0.435352 C.3        1 UNL1     -0.0577
     50 O         -1.766398   1.120774   -2.64197 O.3        1 UNL1     -0.3910
     51 O         -4.045009   0.971831   -0.935923 O.3        1 UNL1     -0.3753
     52 C         -1.474812   -1.445399   0.350605 C.3        1 UNL1     -0.0564
     53 O         -0.819643   1.314494   1.983432 O.3        1 UNL1     -0.4608
     54 C         0.281977   2.127539   2.041057 C.2        1 UNL1     0.3042
     55 O         0.528493   3.102594   1.3323 O.2        1 UNL1     -0.2512
     56 C         1.233346   1.773652   3.148475 C.3        1 UNL1     0.0332
     57 C         -2.806723   3.173969   -0.533899 C.3        1 UNL1     -0.0567
     58 C         -4.309844   -4.096438   -1.751769 C.3        1 UNL1     0.0210
     59 C         -5.423168   1.318506   -0.80801 C.3        1 UNL1     0.0372
     60 C         -3.653705   -1.27302   -1.405352 C.2        1 UNL1     -0.0208
     61 C         -3.992053   -1.184354   -2.692365 C.2        1 UNL1     0.0882
     62 H         -0.016368   -1.731428   -4.418616 H        1 UNL1     0.0365
     63 H         0.124367   -3.472017   -5.477282 H        1 UNL1     0.0576
     64 H         3.036129   -4.031153   -6.317393 H        1 UNL1     0.0615
     65 H         0.387195   -5.660161   -6.612935 H        1 UNL1     0.0622
     66 H         -4.493985   -0.544797   0.350712 H        1 UNL1     0.0645
     67 H         -2.773063   -0.474641   1.589142 H        1 UNL1     0.0362
     68 H         -2.652407   1.707697   1.392125 H        1 UNL1     0.0741
     69 H         -0.845329   3.005048   -0.049311 H        1 UNL1     0.0359
     70 H         -0.49564   2.608513   -2.221864 H        1 UNL1     0.0600
     71 H         1.368941   1.536892   -1.93959 H        1 UNL1     0.0348
     72 H         0.33412   -0.01557   -3.505174 H        1 UNL1     0.0602
     73 H         -3.422126   -2.218513   -0.981485 H        1 UNL1     0.0628
     74 H         -4.186469   -0.24759   -3.215734 H        1 UNL1     0.1022
     75 H         2.882194   -8.770638   -7.942087 H        1 UNL1     0.0279
     76 H         3.824035   -7.367665   -8.254983 H        1 UNL1     0.0279
     77 H         3.758869   -8.129798   -6.614798 H        1 UNL1     0.0279
     78 H         1.748345   -8.853299   -5.394783 H        1 UNL1     0.1553
     79 H         2.422916   -7.343924   -4.302554 H        1 UNL1     0.1484
     80 H         1.6049   -5.627381   -1.012596 H        1 UNL1     0.0317
     81 H         0.719464   -7.027766   -1.599834 H        1 UNL1     0.0317
     82 H         2.834281   -8.087013   -2.436046 H        1 UNL1     0.0428
     83 H         2.892331   -7.718785   -0.726443 H        1 UNL1     0.0428
     84 H         4.847673   -4.981108   -3.331228 H        1 UNL1     0.0428
     85 H         4.109603   -6.35608   -4.075425 H        1 UNL1     0.0428
     86 H         2.832748   -4.213593   -4.14058 H        1 UNL1     0.0317
     87 H         2.74639   -4.098202   -2.443058 H        1 UNL1     0.0317
     88 H         6.039267   -6.684432   -2.306601 H        1 UNL1     0.0429
     89 H         5.603203   -6.767924   -0.59806 H        1 UNL1     0.0429
     90 H         5.009181   -9.015069   -0.763325 H        1 UNL1     0.0308
     91 H         3.034245   -8.493992   -2.291137 H        1 UNL1     0.0233
     92 H         4.138506   -8.658547   -3.68003 H        1 UNL1     0.0233
     93 H         3.7884   -10.039664   -2.662906 H        1 UNL1     0.0233
     94 H         6.400171   -10.238327   -2.313723 H        1 UNL1     0.0233
     95 H         6.635963   -8.787818   -3.30102 H        1 UNL1     0.0233
     96 H         7.302892   -8.859146   -1.653565 H        1 UNL1     0.0233
     97 H         -6.57074   -7.442725   -4.286663 H        1 UNL1     0.0280
     98 H         -6.712217   -5.778114   -4.782891 H        1 UNL1     0.0280
     99 H         -6.499754   -7.05642   -6.015986 H        1 UNL1     0.0280
     100 H         -3.830338   -9.552727   -5.426633 H        1 UNL1     0.2922
     101 H         0.071881   0.101669   -5.716603 H        1 UNL1     0.0236
     102 H         1.424648   -0.662718   -6.639531 H        1 UNL1     0.0236
     103 H         1.730612   0.460836   -5.351311 H        1 UNL1     0.0236
     104 H         2.450675   0.934089   -2.988616 H        1 UNL1     0.2098
     105 H         1.540452   -0.682443   -0.414811 H        1 UNL1     0.0234
     106 H         1.362505   0.971833   0.235422 H        1 UNL1     0.0234
     107 H         0.0   0.0   0.0 H        1 UNL1     0.0234
     108 H         -2.547297   0.876989   -2.108553 H        1 UNL1     0.2098
     109 H         -0.504419   -1.34417   0.856375 H        1 UNL1     0.0234
     110 H         -1.942914   -2.391822   0.641992 H        1 UNL1     0.0234
     111 H         -1.242403   -1.580097   -0.71419 H        1 UNL1     0.0234
     112 H         0.797597   2.045758   4.114615 H        1 UNL1     0.0342
     113 H         1.512189   0.721189   3.128149 H        1 UNL1     0.0342
     114 H         2.150482   2.36364   3.014529 H        1 UNL1     0.0342
     115 H         -2.744093   4.062041   0.10999 H        1 UNL1     0.0234
     116 H         -2.973661   3.520381   -1.55575 H        1 UNL1     0.0234
     117 H         -3.742939   2.714555   -0.172817 H        1 UNL1     0.0234
     118 H         -5.383513   -4.216291   -1.524006 H        1 UNL1     0.0309
     119 H         -3.792529   -5.038716   -1.545131 H        1 UNL1     0.0309
     120 H         -3.967281   -3.388811   -0.988865 H        1 UNL1     0.0309
     121 H         -5.661807   1.334514   0.255076 H        1 UNL1     0.0524
     122 H         -5.641706   2.320866   -1.212426 H        1 UNL1     0.0524
     123 H         -6.043456   0.588622   -1.320461 H        1 UNL1     0.0524
@<TRIPOS>BOND
     1     1     2    1
     2     1    42    1
     3     2     3    2
     4     3     4    1
     5     4     5    2
     6     5     7    1
     7     6    75    1
     8     6    76    1
     9     6    77    1
    10     7     9   am
    11     9    10    1
    12    10    11    2
    13    10    43    1
    14    11    14    1
    15    11    15    1
    16    12    13   ar
    17    12    27   ar
    18    12    43    1
    19    13    14    1
    20    13    30   ar
    21    14    17    2
    22    15    16    1
    23    16    17    1
    24    16    18    1
    25    16    22    1
    26    18    19    1
    27    19    20    1
    28    20    21    1
    29    21    22    1
    30    23    24    1
    31    23    88    1
    32    23    89    1
    33    24    25    1
    34    24    26    1
    35    24    90    1
    36    25    91    1
    37    25    92    1
    38    25    93    1
    39    26    94    1
    40    26    95    1
    41    26    96    1
    42    27    28   ar
    43    28    29   ar
    44    29    30   ar
    45    29    31    1
    46    30    33    1
    47    31    32    1
    48    32    33    1
    49    32    35    1
    50    34    97    1
    51    34    98    1
    52    34    99    1
    53    35    61    1
    54    36    37    1
    55    36    60    1
    56    37    38    1
    57    38    39    1
    58    39    40    1
    59    40    41    1
    60    41    42    1
    61    45   100    1
    62    47   101    1
    63    47   102    1
    64    47   103    1
    65    48   104    1
    66    49   105    1
    67    49   106    1
    68    49   107    1
    69    50   108    1
    70    51    59    1
    71    52   109    1
    72    52   110    1
    73    52   111    1
    74    53    54    1
    75    54    55    2
    76    54    56    1
    77    56   112    1
    78    56   113    1
    79    56   114    1
    80    57   115    1
    81    57   116    1
    82    57   117    1
    83    58   118    1
    84    58   119    1
    85    58   120    1
    86    59   121    1
    87    59   122    1
    88    59   123    1
    89    60    61    2
    90     1    47    1
    91     1    62    1
    92     2    63    1
    93     3    64    1
    94     4    65    1
    95     5     6    1
    96     7     8    2
    97     9    78    1
    98    15    79    1
    99    18    80    1
   100    18    81    1
   101    19    82    1
   102    19    83    1
   103    20    23    1
   104    21    84    1
   105    21    85    1
   106    22    86    1
   107    22    87    1
   108    27    45    1
   109    28    34    1
   110    32    58    1
   111    33    46    2
   112    36    51    1
   113    36    66    1
   114    37    52    1
   115    37    67    1
   116    38    53    1
   117    38    68    1
   118    42    48    1
   119    42    72    1
   120    43    44    2
   121    60    73    1
   122    61    74    1
   123    39    69    1
   124    39    57    1
   125    40    70    1
   126    40    50    1
   127    41    71    1
   128    41    49    1
