@<TRIPOS>MOLECULE
*****
 123 128 0 0 0
SMALL
GASTEIGER

@<TRIPOS>ATOM
     1 C         2.833367   1.133302   -2.807489 C.3        1 UNL1     0.0009
     2 C         2.532131   1.97527   -4.431491 C.2        1 UNL1     -0.0787
     3 C         2.388506   1.913434   -5.870795 C.2        1 UNL1     -0.0649
     4 C         1.949872   3.161495   -6.927347 C.2        1 UNL1     -0.0542
     5 C         1.438149   3.468992   -8.212128 C.2        1 UNL1     0.0115
     6 C         1.077404   2.867161   -9.598124 C.3        1 UNL1     -0.0348
     7 C         0.839363   4.934226   -8.479582 C.2        1 UNL1     0.2441
     8 O         1.453556   5.804423   -9.081288 O.2        1 UNL1     -0.2702
     9 N         -0.5333   5.068201   -8.207556 N.am        1 UNL1     -0.2772
     10 C         -0.73066   5.406425   -6.888475 C.2        1 UNL1     0.1049
     11 C         -0.723674   4.407799   -6.02423 C.2        1 UNL1     0.0801
     12 C         0.027619   6.998182   -5.11403 C.ar        1 UNL1     0.0753
     13 C         0.218357   5.852368   -4.277766 C.ar        1 UNL1     0.0305
     14 C         -0.276507   4.532734   -4.663418 C.2        1 UNL1     0.0924
     15 N         -0.763539   3.081228   -6.236713 N.pl3        1 UNL1     -0.3170
     16 C         -0.909088   2.435752   -4.959047 C.3        1 UNL1     0.1275
     17 N         -0.27737   3.39294   -3.978003 N.2        1 UNL1     -0.2557
     18 C         -2.39879   2.414337   -4.630367 C.3        1 UNL1     0.0016
     19 C         -3.138034   1.728334   -5.768131 C.3        1 UNL1     0.0026
     20 N         -2.615156   0.377392   -5.918402 N.3        1 UNL1     -0.3018
     21 C         -1.1761   0.292778   -6.175942 C.3        1 UNL1     0.0026
     22 C         -0.452989   0.983865   -5.018616 C.3        1 UNL1     0.0016
     23 C         -3.444262   -0.457302   -6.764873 C.3        1 UNL1     0.0012
     24 C         -4.831553   0.176489   -6.953254 C.3        1 UNL1     -0.0339
     25 C         -4.940729   0.899026   -8.306058 C.3        1 UNL1     -0.0615
     26 C         -5.912178   -0.878872   -6.794378 C.3        1 UNL1     -0.0615
     27 C         0.393831   8.272399   -4.686972 C.ar        1 UNL1     0.1347
     28 C         0.921163   8.529685   -3.434065 C.ar        1 UNL1     0.0342
     29 C         1.14533   7.380383   -2.646653 C.ar        1 UNL1     0.1435
     30 C         0.816971   6.093654   -3.075287 C.ar        1 UNL1     0.0774
     31 O         1.551041   7.474702   -1.361542 O.3        1 UNL1     -0.4436
     32 C         1.212636   6.206389   -0.780392 C.3        1 UNL1     0.3143
     33 C         1.136987   5.243263   -1.947815 C.2        1 UNL1     0.2504
     34 C         1.101948   9.887905   -2.815475 C.3        1 UNL1     -0.0327
     35 O         2.323926   5.79745   0.026488 O.2        1 UNL1     -0.4528
     36 C         0.85723   3.708071   2.835649 C.3        1 UNL1     0.0854
     37 C         -0.028751   2.406005   2.75087 C.3        1 UNL1     0.0236
     38 C         0.542756   1.145703   3.561279 C.3        1 UNL1     0.1131
     39 C         2.043251   0.691485   3.350402 C.3        1 UNL1     0.0200
     40 C         2.697766   0.622899   1.817645 C.3        1 UNL1     0.0661
     41 C         2.000196   -0.139767   0.472526 C.3        1 UNL1     0.0091
     42 C         2.0854   0.28108   -1.311018 C.3        1 UNL1     0.0661
     43 C         -0.655497   6.796915   -6.415991 C.2        1 UNL1     0.2131
     44 O         -1.218937   7.688007   -7.025277 O.2        1 UNL1     -0.2851
     45 O         0.21677   9.327597   -5.579522 O.3        1 UNL1     -0.5056
     46 O         1.321383   4.046666   -1.950655 O.2        1 UNL1     -0.2836
     47 C         4.335322   0.769956   -2.658855 C.3        1 UNL1     -0.0566
     48 O         2.392795   -1.104751   -1.740083 O.3        1 UNL1     -0.3909
     49 C         0.553181   -0.450768   0.783848 C.3        1 UNL1     -0.0577
     50 O         3.225173   1.879041   1.44125 O.3        1 UNL1     -0.3910
     51 O         2.113445   3.558995   3.457847 O.3        1 UNL1     -0.3753
     52 C         -0.708805   2.25513   1.350973 C.3        1 UNL1     -0.0564
     53 O         -0.465084   0.051312   3.758496 O.3        1 UNL1     -0.4608
     54 C         -0.204565   -1.182169   4.295695 C.2        1 UNL1     0.3042
     55 O         0.505025   -2.06851   3.821646 O.2        1 UNL1     -0.2512
     56 C         -0.838569   -1.398629   5.640276 C.3        1 UNL1     0.0332
     57 C         2.91886   1.368347   4.505106 C.3        1 UNL1     -0.0567
     58 C         -0.200665   6.366522   -0.173377 C.3        1 UNL1     0.0210
     59 C         2.642111   4.752266   4.034459 C.3        1 UNL1     0.0372
     60 C         1.100663   4.388846   1.534708 C.2        1 UNL1     -0.0208
     61 C         2.222673   4.893514   1.019783 C.2        1 UNL1     0.0882
     62 H         2.693229   2.097213   -2.303556 H        1 UNL1     0.0365
     63 H         2.482363   3.018806   -4.113648 H        1 UNL1     0.0576
     64 H         2.396831   0.961573   -6.406518 H        1 UNL1     0.0615
     65 H         2.050043   4.064801   -6.319492 H        1 UNL1     0.0622
     66 H         0.260475   4.409397   3.435708 H        1 UNL1     0.0645
     67 H         -0.928855   2.655433   3.339222 H        1 UNL1     0.0362
     68 H         0.501441   1.550537   4.583984 H        1 UNL1     0.0741
     69 H         2.151103   -0.326609   3.700059 H        1 UNL1     0.0359
     70 H         3.588779   -0.002226   2.01858 H        1 UNL1     0.0600
     71 H         2.461242   -1.14325   0.558636 H        1 UNL1     0.0348
     72 H         2.933623   0.796058   -0.837066 H        1 UNL1     0.0602
     73 H         0.171516   4.556909   1.04923 H        1 UNL1     0.0628
     74 H         3.220189   4.71771   1.423876 H        1 UNL1     0.1022
     75 H         1.905417   3.038693   -10.327511 H        1 UNL1     0.0279
     76 H         0.948423   1.787946   -9.639694 H        1 UNL1     0.0279
     77 H         0.245106   3.39434   -10.087065 H        1 UNL1     0.0279
     78 H         -1.002404   4.179482   -8.369412 H        1 UNL1     0.1553
     79 H         -1.072831   2.663708   -7.09517 H        1 UNL1     0.1484
     80 H         -2.54777   1.886976   -3.680387 H        1 UNL1     0.0317
     81 H         -2.782835   3.430228   -4.488499 H        1 UNL1     0.0317
     82 H         -3.052231   2.292832   -6.708287 H        1 UNL1     0.0428
     83 H         -4.198463   1.725584   -5.514099 H        1 UNL1     0.0428
     84 H         -0.79529   -0.732863   -6.205175 H        1 UNL1     0.0428
     85 H         -0.912143   0.703535   -7.160281 H        1 UNL1     0.0428
     86 H         0.591995   0.78731   -5.171461 H        1 UNL1     0.0317
     87 H         -0.67341   0.466677   -4.076794 H        1 UNL1     0.0317
     88 H         -2.959656   -0.535866   -7.74685 H        1 UNL1     0.0429
     89 H         -3.525374   -1.475819   -6.363851 H        1 UNL1     0.0429
     90 H         -5.00501   0.905628   -6.152952 H        1 UNL1     0.0308
     91 H         -5.948452   1.294112   -8.465758 H        1 UNL1     0.0233
     92 H         -4.220637   1.718501   -8.365534 H        1 UNL1     0.0233
     93 H         -4.72089   0.236762   -9.152174 H        1 UNL1     0.0233
     94 H         -6.731088   -0.689668   -7.49682 H        1 UNL1     0.0233
     95 H         -5.502494   -1.868988   -7.012992 H        1 UNL1     0.0233
     96 H         -6.320801   -0.88204   -5.779989 H        1 UNL1     0.0233
     97 H         1.555789   10.592827   -3.505652 H        1 UNL1     0.0280
     98 H         0.146107   10.335762   -2.513734 H        1 UNL1     0.0280
     99 H         1.751265   9.805982   -1.928473 H        1 UNL1     0.0280
     100 H         -0.625049   9.745327   -5.529876 H        1 UNL1     0.2922
     101 H         4.528221   -0.195051   -3.127051 H        1 UNL1     0.0236
     102 H         4.683738   0.800868   -1.627044 H        1 UNL1     0.0236
     103 H         4.987817   1.477579   -3.197106 H        1 UNL1     0.0236
     104 H         1.561843   -1.617396   -1.699041 H        1 UNL1     0.2098
     105 H         0.313644   -1.511121   0.79305 H        1 UNL1     0.0234
     106 H         0.166673   0.031639   1.681524 H        1 UNL1     0.0234
     107 H         -0.0   0.0   0.0 H        1 UNL1     0.0234
     108 H         3.194261   1.926292   0.466273 H        1 UNL1     0.2098
     109 H         -0.58832   3.154406   0.730894 H        1 UNL1     0.0234
     110 H         -0.360412   1.377702   0.795558 H        1 UNL1     0.0234
     111 H         -1.792101   2.09974   1.441911 H        1 UNL1     0.0234
     112 H         -0.193264   -0.99339   6.425584 H        1 UNL1     0.0342
     113 H         -1.837926   -0.969608   5.69568 H        1 UNL1     0.0342
     114 H         -0.931282   -2.480856   5.80566 H        1 UNL1     0.0342
     115 H         2.344514   2.117675   5.067086 H        1 UNL1     0.0234
     116 H         3.326766   0.658093   5.227049 H        1 UNL1     0.0234
     117 H         3.752641   1.98187   4.122561 H        1 UNL1     0.0234
     118 H         -0.52031   7.422798   -0.140004 H        1 UNL1     0.0309
     119 H         -0.961795   5.77834   -0.695799 H        1 UNL1     0.0309
     120 H         -0.245   6.055951   0.876236 H        1 UNL1     0.0309
     121 H         2.27081   4.816945   5.056862 H        1 UNL1     0.0524
     122 H         3.743802   4.74174   4.081416 H        1 UNL1     0.0524
     123 H         2.321802   5.619349   3.463791 H        1 UNL1     0.0524
@<TRIPOS>BOND
     1     1     2    1
     2     1    42    1
     3     2     3    2
     4     3     4    1
     5     4     5    2
     6     5     7    1
     7     6    75    1
     8     6    76    1
     9     6    77    1
    10     7     9   am
    11     9    10    1
    12    10    11    2
    13    10    43    1
    14    11    14    1
    15    11    15    1
    16    12    13   ar
    17    12    27   ar
    18    12    43    1
    19    13    14    1
    20    13    30   ar
    21    14    17    2
    22    15    16    1
    23    16    17    1
    24    16    18    1
    25    16    22    1
    26    18    19    1
    27    19    20    1
    28    20    21    1
    29    21    22    1
    30    23    24    1
    31    23    88    1
    32    23    89    1
    33    24    25    1
    34    24    26    1
    35    24    90    1
    36    25    91    1
    37    25    92    1
    38    25    93    1
    39    26    94    1
    40    26    95    1
    41    26    96    1
    42    27    28   ar
    43    28    29   ar
    44    29    30   ar
    45    29    31    1
    46    30    33    1
    47    31    32    1
    48    32    33    1
    49    32    35    1
    50    34    97    1
    51    34    98    1
    52    34    99    1
    53    35    61    1
    54    36    37    1
    55    36    60    1
    56    37    38    1
    57    38    39    1
    58    39    40    1
    59    40    41    1
    60    41    42    1
    61    45   100    1
    62    47   101    1
    63    47   102    1
    64    47   103    1
    65    48   104    1
    66    49   105    1
    67    49   106    1
    68    49   107    1
    69    50   108    1
    70    51    59    1
    71    52   109    1
    72    52   110    1
    73    52   111    1
    74    53    54    1
    75    54    55    2
    76    54    56    1
    77    56   112    1
    78    56   113    1
    79    56   114    1
    80    57   115    1
    81    57   116    1
    82    57   117    1
    83    58   118    1
    84    58   119    1
    85    58   120    1
    86    59   121    1
    87    59   122    1
    88    59   123    1
    89    60    61    2
    90     1    47    1
    91     1    62    1
    92     2    63    1
    93     3    64    1
    94     4    65    1
    95     5     6    1
    96     7     8    2
    97     9    78    1
    98    15    79    1
    99    18    80    1
   100    18    81    1
   101    19    82    1
   102    19    83    1
   103    20    23    1
   104    21    84    1
   105    21    85    1
   106    22    86    1
   107    22    87    1
   108    27    45    1
   109    28    34    1
   110    32    58    1
   111    33    46    2
   112    36    51    1
   113    36    66    1
   114    37    52    1
   115    37    67    1
   116    38    53    1
   117    38    68    1
   118    42    48    1
   119    42    72    1
   120    43    44    2
   121    60    73    1
   122    61    74    1
   123    39    69    1
   124    39    57    1
   125    40    70    1
   126    40    50    1
   127    41    71    1
   128    41    49    1
