@<TRIPOS>MOLECULE
*****
 123 128 0 0 0
SMALL
GASTEIGER

@<TRIPOS>ATOM
     1 C         5.172903   1.733047   0.487043 C.3        1 UNL1     0.0009
     2 C         6.611402   2.534522   -0.364657 C.2        1 UNL1     -0.0787
     3 C         7.892549   2.432248   -1.031177 C.2        1 UNL1     -0.0649
     4 C         8.773138   3.664429   -1.787914 C.2        1 UNL1     -0.0542
     5 C         9.793406   3.95363   -2.727325 C.2        1 UNL1     0.0115
     6 C         10.919188   3.32446   -3.593399 C.3        1 UNL1     -0.0348
     7 C         9.892719   5.436317   -3.334585 C.2        1 UNL1     0.2441
     8 O         10.719269   6.255707   -2.957834 O.2        1 UNL1     -0.2702
     9 N         9.142343   5.644951   -4.504866 N.am        1 UNL1     -0.2772
     10 C         7.86098   6.035557   -4.190452 C.2        1 UNL1     0.1049
     11 C         7.012526   5.066778   -3.897512 C.2        1 UNL1     0.0801
     12 C         6.568255   7.646685   -2.779614 C.ar        1 UNL1     0.0753
     13 C         5.80617   6.521221   -2.331102 C.ar        1 UNL1     0.0305
     14 C         5.918828   5.214881   -2.975955 C.2        1 UNL1     0.0924
     15 N         7.131123   3.73737   -4.05606 N.pl3        1 UNL1     -0.3170
     16 C         5.859709   3.142093   -3.740773 C.3        1 UNL1     0.1275
     17 N         5.226771   4.099655   -2.760882 N.2        1 UNL1     -0.2557
     18 C         5.00621   3.20309   -5.003912 C.3        1 UNL1     0.0016
     19 C         5.75833   2.51625   -6.132697 C.3        1 UNL1     0.0026
     20 N         6.024662   1.137538   -5.746371 N.3        1 UNL1     -0.3018
     21 C         6.788355   0.97547   -4.507471 C.3        1 UNL1     0.0026
     22 C         6.012385   1.668805   -3.386288 C.3        1 UNL1     0.0016
     23 C         6.466022   0.316177   -6.855971 C.3        1 UNL1     0.0012
     24 C         5.308081   0.066018   -7.834924 C.3        1 UNL1     -0.0339
     25 C         5.326361   1.073008   -8.996688 C.3        1 UNL1     -0.0615
     26 C         5.350537   -1.366949   -8.336506 C.3        1 UNL1     -0.0615
     27 C         6.367688   8.915229   -2.240458 C.ar        1 UNL1     0.1347
     28 C         5.410059   9.188051   -1.279955 C.ar        1 UNL1     0.0342
     29 C         4.705459   8.055889   -0.818531 C.ar        1 UNL1     0.1435
     30 C         4.920789   6.772985   -1.323515 C.ar        1 UNL1     0.0774
     31 O         3.665368   8.172924   0.035589 O.3        1 UNL1     -0.4436
     32 C         2.939966   6.942171   -0.105517 C.3        1 UNL1     0.3143
     33 C         3.94998   5.945833   -0.637866 C.2        1 UNL1     0.2504
     34 C         4.967541   10.555673   -0.839629 C.3        1 UNL1     -0.0327
     35 O         2.578913   6.507154   1.211166 O.2        1 UNL1     -0.4528
     36 C         -0.670078   4.584352   0.817486 C.3        1 UNL1     0.0854
     37 C         -0.979693   3.324251   -0.079066 C.3        1 UNL1     0.0236
     38 C         -1.583441   2.065355   0.709865 C.3        1 UNL1     0.1131
     39 C         -0.858389   1.532898   2.011041 C.3        1 UNL1     0.0200
     40 C         0.802394   1.382475   2.051178 C.3        1 UNL1     0.0661
     41 C         1.758716   0.610266   0.882096 C.3        1 UNL1     0.0091
     42 C         3.46699   0.967519   0.316787 C.3        1 UNL1     0.0661
     43 C         7.516936   7.435651   -3.9011 C.2        1 UNL1     0.2131
     44 O         7.918988   8.332205   -4.620324 O.2        1 UNL1     -0.2851
     45 O         7.182698   9.947718   -2.69998 O.3        1 UNL1     -0.5056
     46 O         3.962506   4.742319   -0.506524 O.2        1 UNL1     -0.2836
     47 C         5.568954   1.303088   1.925188 C.3        1 UNL1     -0.0566
     48 O         3.911444   -0.444864   0.398951 O.3        1 UNL1     -0.3909
     49 C         0.923021   0.379545   -0.357209 C.3        1 UNL1     -0.0577
     50 O         1.406444   2.598749   2.443 O.3        1 UNL1     -0.3910
     51 O         -0.793797   4.39571   2.209082 O.3        1 UNL1     -0.3753
     52 C         0.063516   3.160148   -1.232208 C.3        1 UNL1     -0.0564
     53 O         -2.189707   1.027723   -0.189072 O.3        1 UNL1     -0.4608
     54 C         -2.415653   -0.281445   0.147019 C.2        1 UNL1     0.3042
     55 O         -1.846714   -1.276331   -0.300584 O.2        1 UNL1     -0.2512
     56 C         -3.44483   -0.455998   1.227316 C.3        1 UNL1     0.0332
     57 C         -1.576598   2.204622   3.272444 C.3        1 UNL1     -0.0567
     58 C         1.864774   7.189912   -1.189084 C.3        1 UNL1     0.0210
     59 C         -1.141672   5.568026   2.944286 C.3        1 UNL1     0.0372
     60 C         0.660614   5.209401   0.585679 C.2        1 UNL1     -0.0208
     61 C         1.575412   5.642356   1.454264 C.2        1 UNL1     0.0882
     62 H         4.699948   2.718662   0.574152 H        1 UNL1     0.0365
     63 H         6.348337   3.589154   -0.259685 H        1 UNL1     0.0576
     64 H         8.3472   1.463945   -1.252062 H        1 UNL1     0.0615
     65 H         8.288992   4.581427   -1.441214 H        1 UNL1     0.0622
     66 H         -1.412729   5.332925   0.507399 H        1 UNL1     0.0645
     67 H         -1.844734   3.635875   -0.68993 H        1 UNL1     0.0362
     68 H         -2.528982   2.505196   1.062025 H        1 UNL1     0.0741
     69 H         -1.192763   0.522878   2.207157 H        1 UNL1     0.0359
     70 H         0.912812   0.722244   2.932633 H        1 UNL1     0.0600
     71 H         1.799571   -0.410816   1.309506 H        1 UNL1     0.0348
     72 H         3.363209   1.45651   1.296294 H        1 UNL1     0.0602
     73 H         0.778394   5.405797   -0.451049 H        1 UNL1     0.0628
     74 H         1.557964   5.432265   2.524215 H        1 UNL1     0.1022
     75 H         10.960509   2.219129   -3.439872 H        1 UNL1     0.0279
     76 H         10.805074   3.40706   -4.671928 H        1 UNL1     0.0279
     77 H         11.925378   3.626354   -3.267604 H        1 UNL1     0.0279
     78 H         9.07742   4.774933   -5.029206 H        1 UNL1     0.1553
     79 H         7.794711   3.307116   -4.67369 H        1 UNL1     0.1484
     80 H         4.043614   2.715092   -4.80889 H        1 UNL1     0.0317
     81 H         4.782481   4.240376   -5.275271 H        1 UNL1     0.0317
     82 H         6.690391   3.04468   -6.38157 H        1 UNL1     0.0428
     83 H         5.132742   2.572804   -7.024039 H        1 UNL1     0.0428
     84 H         6.905804   -0.067681   -4.197871 H        1 UNL1     0.0428
     85 H         7.81946   1.340409   -4.612163 H        1 UNL1     0.0428
     86 H         6.528679   1.417362   -2.478431 H        1 UNL1     0.0317
     87 H         5.031619   1.194124   -3.260304 H        1 UNL1     0.0317
     88 H         7.261138   0.856738   -7.385951 H        1 UNL1     0.0429
     89 H         6.898892   -0.629356   -6.504737 H        1 UNL1     0.0429
     90 H         4.356694   0.167872   -7.299481 H        1 UNL1     0.0308
     91 H         6.273564   1.032976   -9.542861 H        1 UNL1     0.0233
     92 H         4.50436   0.878401   -9.689545 H        1 UNL1     0.0233
     93 H         5.19974   2.107381   -8.654819 H        1 UNL1     0.0233
     94 H         4.651841   -1.496175   -9.170149 H        1 UNL1     0.0233
     95 H         6.354486   -1.606754   -8.697813 H        1 UNL1     0.0233
     96 H         5.081195   -2.074206   -7.547069 H        1 UNL1     0.0233
     97 H         4.174558   10.5086   -0.099228 H        1 UNL1     0.0280
     98 H         5.782288   11.123545   -0.371692 H        1 UNL1     0.0280
     99 H         4.594942   11.120878   -1.709576 H        1 UNL1     0.0280
     100 H         6.717661   10.699283   -3.023266 H        1 UNL1     0.2922
     101 H         4.705206   0.872247   2.431125 H        1 UNL1     0.0236
     102 H         6.022501   2.107385   2.503449 H        1 UNL1     0.0236
     103 H         6.32283   0.49819   1.923976 H        1 UNL1     0.0236
     104 H         4.331195   -0.571659   1.272279 H        1 UNL1     0.2098
     105 H         0.713271   1.278606   -0.931236 H        1 UNL1     0.0234
     106 H         1.289219   -0.410396   -1.012814 H        1 UNL1     0.0234
     107 H         0.0   -0.0   0.0 H        1 UNL1     0.0234
     108 H         1.206978   3.25798   1.750616 H        1 UNL1     0.2098
     109 H         1.088269   3.043838   -0.852649 H        1 UNL1     0.0234
     110 H         -0.171826   2.333401   -1.911065 H        1 UNL1     0.0234
     111 H         0.08687   4.042571   -1.885454 H        1 UNL1     0.0234
     112 H         -3.573168   -1.519464   1.45073 H        1 UNL1     0.0342
     113 H         -3.193842   0.104627   2.126509 H        1 UNL1     0.0342
     114 H         -4.40386   -0.072434   0.852744 H        1 UNL1     0.0342
     115 H         -2.641511   1.939361   3.325212 H        1 UNL1     0.0234
     116 H         -1.125176   1.943223   4.231578 H        1 UNL1     0.0234
     117 H         -1.633861   3.30506   3.211633 H        1 UNL1     0.0234
     118 H         0.96542   7.679678   -0.776413 H        1 UNL1     0.0309
     119 H         2.235303   7.776383   -2.035821 H        1 UNL1     0.0309
     120 H         1.473169   6.258892   -1.613292 H        1 UNL1     0.0309
     121 H         -0.341164   6.2941   2.805147 H        1 UNL1     0.0524
     122 H         -2.074872   6.028856   2.579854 H        1 UNL1     0.0524
     123 H         -1.25374   5.331075   3.99851 H        1 UNL1     0.0524
@<TRIPOS>BOND
     1     1     2    1
     2     1    42    1
     3     2     3    2
     4     3     4    1
     5     4     5    2
     6     5     7    1
     7     6    75    1
     8     6    76    1
     9     6    77    1
    10     7     9   am
    11     9    10    1
    12    10    11    2
    13    10    43    1
    14    11    14    1
    15    11    15    1
    16    12    13   ar
    17    12    27   ar
    18    12    43    1
    19    13    14    1
    20    13    30   ar
    21    14    17    2
    22    15    16    1
    23    16    17    1
    24    16    18    1
    25    16    22    1
    26    18    19    1
    27    19    20    1
    28    20    21    1
    29    21    22    1
    30    23    24    1
    31    23    88    1
    32    23    89    1
    33    24    25    1
    34    24    26    1
    35    24    90    1
    36    25    91    1
    37    25    92    1
    38    25    93    1
    39    26    94    1
    40    26    95    1
    41    26    96    1
    42    27    28   ar
    43    28    29   ar
    44    29    30   ar
    45    29    31    1
    46    30    33    1
    47    31    32    1
    48    32    33    1
    49    32    35    1
    50    34    97    1
    51    34    98    1
    52    34    99    1
    53    35    61    1
    54    36    37    1
    55    36    60    1
    56    37    38    1
    57    38    39    1
    58    39    40    1
    59    40    41    1
    60    41    42    1
    61    45   100    1
    62    47   101    1
    63    47   102    1
    64    47   103    1
    65    48   104    1
    66    49   105    1
    67    49   106    1
    68    49   107    1
    69    50   108    1
    70    51    59    1
    71    52   109    1
    72    52   110    1
    73    52   111    1
    74    53    54    1
    75    54    55    2
    76    54    56    1
    77    56   112    1
    78    56   113    1
    79    56   114    1
    80    57   115    1
    81    57   116    1
    82    57   117    1
    83    58   118    1
    84    58   119    1
    85    58   120    1
    86    59   121    1
    87    59   122    1
    88    59   123    1
    89    60    61    2
    90     1    47    1
    91     1    62    1
    92     2    63    1
    93     3    64    1
    94     4    65    1
    95     5     6    1
    96     7     8    2
    97     9    78    1
    98    15    79    1
    99    18    80    1
   100    18    81    1
   101    19    82    1
   102    19    83    1
   103    20    23    1
   104    21    84    1
   105    21    85    1
   106    22    86    1
   107    22    87    1
   108    27    45    1
   109    28    34    1
   110    32    58    1
   111    33    46    2
   112    36    51    1
   113    36    66    1
   114    37    52    1
   115    37    67    1
   116    38    53    1
   117    38    68    1
   118    42    48    1
   119    42    72    1
   120    43    44    2
   121    60    73    1
   122    61    74    1
   123    39    69    1
   124    39    57    1
   125    40    70    1
   126    40    50    1
   127    41    71    1
   128    41    49    1
