@<TRIPOS>MOLECULE
*****
 123 128 0 0 0
SMALL
GASTEIGER

@<TRIPOS>ATOM
     1 C         4.506592   2.963959   0.677731 C.3        1 UNL1     0.0009
     2 C         5.471149   4.401744   0.014827 C.2        1 UNL1     -0.0787
     3 C         6.622717   4.923543   -0.690626 C.2        1 UNL1     -0.0649
     4 C         6.929859   6.527043   -1.138742 C.2        1 UNL1     -0.0542
     5 C         7.671744   7.36919   -2.003308 C.2        1 UNL1     0.0115
     6 C         8.837596   7.402599   -3.029463 C.3        1 UNL1     -0.0348
     7 C         7.181984   8.882104   -2.222882 C.2        1 UNL1     0.2441
     8 O         7.712198   9.839207   -1.67575 O.2        1 UNL1     -0.2702
     9 N         6.27602   9.059914   -3.28296 N.am        1 UNL1     -0.2772
     10 C         4.984016   8.87755   -2.846164 C.2        1 UNL1     0.1049
     11 C         4.562291   7.627653   -2.781916 C.2        1 UNL1     0.0801
     12 C         3.386351   9.5499   -1.042627 C.ar        1 UNL1     0.0753
     13 C         3.11714   8.15487   -0.869347 C.ar        1 UNL1     0.0305
     14 C         3.598899   7.158369   -1.823258 C.2        1 UNL1     0.0924
     15 N         5.11367   6.503726   -3.271097 N.pl3        1 UNL1     -0.3170
     16 C         4.171592   5.433051   -3.080315 C.3        1 UNL1     0.1275
     17 N         3.364431   5.850222   -1.875249 N.2        1 UNL1     -0.2557
     18 C         3.20987   5.46063   -4.26439 C.3        1 UNL1     0.0016
     19 C         4.017328   5.364899   -5.549083 C.3        1 UNL1     0.0026
     20 N         4.786207   4.128219   -5.527259 N.3        1 UNL1     -0.3018
     21 C         5.696407   3.982025   -4.389484 C.3        1 UNL1     0.0026
     22 C         4.863616   4.076668   -3.109876 C.3        1 UNL1     0.0016
     23 C         5.35293   3.79366   -6.818591 C.3        1 UNL1     0.0012
     24 C         4.247486   3.369893   -7.798474 C.3        1 UNL1     -0.0339
     25 C         4.2554   4.240389   -9.065846 C.3        1 UNL1     -0.0615
     26 C         4.38523   1.894725   -8.132671 C.3        1 UNL1     -0.0615
     27 C         2.823579   10.503915   -0.198079 C.ar        1 UNL1     0.1347
     28 C         1.948323   10.188152   0.825772 C.ar        1 UNL1     0.0342
     29 C         1.736453   8.805056   1.008312 C.ar        1 UNL1     0.1435
     30 C         2.321878   7.835773   0.192844 C.ar        1 UNL1     0.0774
     31 O         0.825937   8.342216   1.892476 O.3        1 UNL1     -0.4436
     32 C         0.559216   6.997092   1.467772 C.3        1 UNL1     0.3143
     33 C         1.782597   6.581745   0.675915 C.2        1 UNL1     0.2504
     34 C         1.114587   11.166004   1.606021 C.3        1 UNL1     -0.0327
     35 O         0.52518   6.178132   2.643101 O.2        1 UNL1     -0.4528
     36 C         -1.881898   3.346979   1.869383 C.3        1 UNL1     0.0854
     37 C         -1.838431   2.295207   0.694901 C.3        1 UNL1     0.0236
     38 C         -1.874802   0.760891   1.159977 C.3        1 UNL1     0.1131
     39 C         -0.865457   0.251724   2.266432 C.3        1 UNL1     0.0200
     40 C         0.737856   0.70987   2.222553 C.3        1 UNL1     0.0661
     41 C         1.76033   0.620096   0.871962 C.3        1 UNL1     0.0091
     42 C         3.162634   1.690036   0.367803 C.3        1 UNL1     0.0661
     43 C         4.213352   9.95429   -2.206585 C.2        1 UNL1     0.2131
     44 O         4.195089   11.072031   -2.689347 O.2        1 UNL1     -0.2851
     45 O         3.172926   11.836532   -0.406707 O.3        1 UNL1     -0.5056
     46 O         2.225157   5.468357   0.501669 O.2        1 UNL1     -0.2836
     47 C         5.189932   2.397391   1.95132 C.3        1 UNL1     -0.0566
     48 O         4.073932   0.555592   0.081989 O.3        1 UNL1     -0.3909
     49 C         0.91871   0.384955   -0.362493 C.3        1 UNL1     -0.0577
     50 O         0.925493   1.941774   2.889582 O.3        1 UNL1     -0.3910
     51 O         -1.771363   2.820313   3.172394 O.3        1 UNL1     -0.3753
     52 C         -0.943259   2.783454   -0.490523 C.3        1 UNL1     -0.0564
     53 O         -2.184734   -0.196866   0.046887 O.3        1 UNL1     -0.4608
     54 C         -1.885483   -1.53416   0.04218 C.2        1 UNL1     0.3042
     55 O         -0.964878   -2.091396   -0.554321 O.2        1 UNL1     -0.2512
     56 C         -2.782095   -2.354179   0.925565 C.3        1 UNL1     0.0332
     57 C         -1.620806   0.31645   3.674776 C.3        1 UNL1     -0.0567
     58 C         -0.652757   7.072919   0.510222 C.3        1 UNL1     0.0210
     59 C         -2.381692   3.610194   4.191929 C.3        1 UNL1     0.0372
     60 C         -0.885263   4.447448   1.765233 C.2        1 UNL1     -0.0208
     61 C         -0.082615   4.977117   2.689328 C.2        1 UNL1     0.0882
     62 H         3.735706   3.664199   1.021403 H        1 UNL1     0.0365
     63 H         4.873958   5.236645   0.38735 H        1 UNL1     0.0576
     64 H         7.355137   4.262221   -1.158944 H        1 UNL1     0.0615
     65 H         6.202211   7.10312   -0.560687 H        1 UNL1     0.0622
     66 H         -2.867913   3.823662   1.776671 H        1 UNL1     0.0645
     67 H         -2.822202   2.399461   0.205121 H        1 UNL1     0.0362
     68 H         -2.866698   0.736587   1.636499 H        1 UNL1     0.0741
     69 H         -0.805338   -0.827121   2.212693 H        1 UNL1     0.0359
     70 H         1.17048   -0.044263   2.907521 H        1 UNL1     0.0600
     71 H         2.200421   -0.384184   1.029121 H        1 UNL1     0.0348
     72 H         3.010104   1.875656   1.440927 H        1 UNL1     0.0602
     73 H         -0.963057   4.899636   0.807777 H        1 UNL1     0.0628
     74 H         0.097184   4.541555   3.672789 H        1 UNL1     0.1022
     75 H         9.223404   6.371784   -3.218164 H        1 UNL1     0.0279
     76 H         8.59236   7.747984   -4.03128 H        1 UNL1     0.0279
     77 H         9.735602   7.901673   -2.636764 H        1 UNL1     0.0279
     78 H         6.455581   8.366629   -4.006279 H        1 UNL1     0.1553
     79 H         5.809031   6.493647   -3.994495 H        1 UNL1     0.1484
     80 H         2.504464   4.626034   -4.171558 H        1 UNL1     0.0317
     81 H         2.611877   6.378261   -4.261499 H        1 UNL1     0.0317
     82 H         4.674116   6.237014   -5.683091 H        1 UNL1     0.0428
     83 H         3.312306   5.388114   -6.380621 H        1 UNL1     0.0428
     84 H         6.201859   3.011939   -4.353945 H        1 UNL1     0.0428
     85 H         6.518551   4.71   -4.427532 H        1 UNL1     0.0428
     86 H         5.536078   3.833789   -2.308133 H        1 UNL1     0.0317
     87 H         4.128719   3.262952   -3.080038 H        1 UNL1     0.0317
     88 H         5.848278   4.688983   -7.216488 H        1 UNL1     0.0429
     89 H         6.121034   3.014908   -6.727295 H        1 UNL1     0.0429
     90 H         3.272633   3.476126   -7.307975 H        1 UNL1     0.0308
     91 H         5.269377   4.362049   -9.458467 H        1 UNL1     0.0233
     92 H         3.621368   3.801588   -9.839839 H        1 UNL1     0.0233
     93 H         3.862045   5.247713   -8.883073 H        1 UNL1     0.0233
     94 H         3.885121   1.674207   -9.081933 H        1 UNL1     0.0233
     95 H         5.441637   1.632855   -8.239393 H        1 UNL1     0.0233
     96 H         3.942624   1.266309   -7.354749 H        1 UNL1     0.0233
     97 H         0.418789   10.666528   2.273567 H        1 UNL1     0.0280
     98 H         1.72776   11.816682   2.243119 H        1 UNL1     0.0280
     99 H         0.535096   11.794538   0.910155 H        1 UNL1     0.0280
     100 H         2.444355   12.430995   -0.444395 H        1 UNL1     0.2922
     101 H         4.539821   1.658709   2.41968 H        1 UNL1     0.0236
     102 H         5.500186   3.171929   2.651903 H        1 UNL1     0.0236
     103 H         6.115056   1.845848   1.714385 H        1 UNL1     0.0236
     104 H         4.540075   0.33533   0.91215 H        1 UNL1     0.2098
     105 H         0.70043   1.28297   -0.934973 H        1 UNL1     0.0234
     106 H         1.285585   -0.402668   -1.020506 H        1 UNL1     0.0234
     107 H         0.0   -0.0   0.0 H        1 UNL1     0.0234
     108 H         0.487324   2.631176   2.354325 H        1 UNL1     0.2098
     109 H         0.092149   2.977413   -0.17744 H        1 UNL1     0.0234
     110 H         -0.945547   2.095884   -1.343157 H        1 UNL1     0.0234
     111 H         -1.308955   3.729833   -0.910737 H        1 UNL1     0.0234
     112 H         -2.47745   -3.40463   0.892541 H        1 UNL1     0.0342
     113 H         -2.797958   -1.98398   1.94955 H        1 UNL1     0.0342
     114 H         -3.805646   -2.287828   0.531731 H        1 UNL1     0.0342
     115 H         -2.587044   -0.205706   3.644357 H        1 UNL1     0.0234
     116 H         -1.048042   -0.100889   4.505328 H        1 UNL1     0.0234
     117 H         -1.937833   1.33502   3.957531 H        1 UNL1     0.0234
     118 H         -1.578644   6.701281   0.98311 H        1 UNL1     0.0309
     119 H         -0.82941   8.080145   0.11972 H        1 UNL1     0.0309
     120 H         -0.538198   6.424134   -0.365026 H        1 UNL1     0.0309
     121 H         -1.869271   3.392623   5.128648 H        1 UNL1     0.0524
     122 H         -2.279423   4.691448   4.000958 H        1 UNL1     0.0524
     123 H         -3.436687   3.365264   4.27613 H        1 UNL1     0.0524
@<TRIPOS>BOND
     1     1     2    1
     2     1    42    1
     3     2     3    2
     4     3     4    1
     5     4     5    2
     6     5     7    1
     7     6    75    1
     8     6    76    1
     9     6    77    1
    10     7     9   am
    11     9    10    1
    12    10    11    2
    13    10    43    1
    14    11    14    1
    15    11    15    1
    16    12    13   ar
    17    12    27   ar
    18    12    43    1
    19    13    14    1
    20    13    30   ar
    21    14    17    2
    22    15    16    1
    23    16    17    1
    24    16    18    1
    25    16    22    1
    26    18    19    1
    27    19    20    1
    28    20    21    1
    29    21    22    1
    30    23    24    1
    31    23    88    1
    32    23    89    1
    33    24    25    1
    34    24    26    1
    35    24    90    1
    36    25    91    1
    37    25    92    1
    38    25    93    1
    39    26    94    1
    40    26    95    1
    41    26    96    1
    42    27    28   ar
    43    28    29   ar
    44    29    30   ar
    45    29    31    1
    46    30    33    1
    47    31    32    1
    48    32    33    1
    49    32    35    1
    50    34    97    1
    51    34    98    1
    52    34    99    1
    53    35    61    1
    54    36    37    1
    55    36    60    1
    56    37    38    1
    57    38    39    1
    58    39    40    1
    59    40    41    1
    60    41    42    1
    61    45   100    1
    62    47   101    1
    63    47   102    1
    64    47   103    1
    65    48   104    1
    66    49   105    1
    67    49   106    1
    68    49   107    1
    69    50   108    1
    70    51    59    1
    71    52   109    1
    72    52   110    1
    73    52   111    1
    74    53    54    1
    75    54    55    2
    76    54    56    1
    77    56   112    1
    78    56   113    1
    79    56   114    1
    80    57   115    1
    81    57   116    1
    82    57   117    1
    83    58   118    1
    84    58   119    1
    85    58   120    1
    86    59   121    1
    87    59   122    1
    88    59   123    1
    89    60    61    2
    90     1    47    1
    91     1    62    1
    92     2    63    1
    93     3    64    1
    94     4    65    1
    95     5     6    1
    96     7     8    2
    97     9    78    1
    98    15    79    1
    99    18    80    1
   100    18    81    1
   101    19    82    1
   102    19    83    1
   103    20    23    1
   104    21    84    1
   105    21    85    1
   106    22    86    1
   107    22    87    1
   108    27    45    1
   109    28    34    1
   110    32    58    1
   111    33    46    2
   112    36    51    1
   113    36    66    1
   114    37    52    1
   115    37    67    1
   116    38    53    1
   117    38    68    1
   118    42    48    1
   119    42    72    1
   120    43    44    2
   121    60    73    1
   122    61    74    1
   123    39    69    1
   124    39    57    1
   125    40    70    1
   126    40    50    1
   127    41    71    1
   128    41    49    1
