@<TRIPOS>MOLECULE
*****
 123 128 0 0 0
SMALL
GASTEIGER

@<TRIPOS>ATOM
     1 C         5.168284   1.74322   0.499296 C.3        1 UNL1     0.0009
     2 C         6.607509   2.546819   -0.349172 C.2        1 UNL1     -0.0787
     3 C         7.890518   2.446484   -1.012396 C.2        1 UNL1     -0.0649
     4 C         8.77083   3.679844   -1.767532 C.2        1 UNL1     -0.0542
     5 C         9.792957   3.970382   -2.704507 C.2        1 UNL1     0.0115
     6 C         10.922043   3.342776   -3.567407 C.3        1 UNL1     -0.0348
     7 C         9.891172   5.452935   -3.312272 C.2        1 UNL1     0.2441
     8 O         10.715309   6.273985   -2.933851 O.2        1 UNL1     -0.2702
     9 N         9.143392   5.659641   -4.484556 N.am        1 UNL1     -0.2772
     10 C         7.860544   6.048128   -4.173585 C.2        1 UNL1     0.1049
     11 C         7.013074   5.07799   -3.882296 C.2        1 UNL1     0.0801
     12 C         6.561392   7.657671   -2.766848 C.ar        1 UNL1     0.0753
     13 C         5.800175   6.531081   -2.319689 C.ar        1 UNL1     0.0305
     14 C         5.916785   5.224616   -2.963586 C.2        1 UNL1     0.0924
     15 N         7.134434   3.748715   -4.039864 N.pl3        1 UNL1     -0.3170
     16 C         5.863286   3.151339   -3.72749 C.3        1 UNL1     0.1275
     17 N         5.226169   4.108271   -2.749694 N.2        1 UNL1     -0.2557
     18 C         5.01288   3.210177   -4.992816 C.3        1 UNL1     0.0016
     19 C         5.769074   2.524102   -6.119342 C.3        1 UNL1     0.0026
     20 N         6.036876   1.146062   -5.731638 N.3        1 UNL1     -0.3018
     21 C         6.797718   0.985981   -4.490726 C.3        1 UNL1     0.0026
     22 C         6.017681   1.678504   -3.371865 C.3        1 UNL1     0.0016
     23 C         6.482502   0.324924   -6.839696 C.3        1 UNL1     0.0012
     24 C         5.32749   0.07221   -7.821448 C.3        1 UNL1     -0.0339
     25 C         5.35203   1.073184   -8.988284 C.3        1 UNL1     -0.0615
     26 C         5.36864   -1.363399   -8.315529 C.3        1 UNL1     -0.0615
     27 C         6.357207   8.926129   -2.228851 C.ar        1 UNL1     0.1347
     28 C         5.396667   9.197735   -1.270914 C.ar        1 UNL1     0.0342
     29 C         4.692913   8.064557   -0.810695 C.ar        1 UNL1     0.1435
     30 C         4.9118   6.781781   -1.314475 C.ar        1 UNL1     0.0774
     31 O         3.650458   8.180176   0.040731 O.3        1 UNL1     -0.4436
     32 C         2.927603   6.948063   -0.10158 C.3        1 UNL1     0.3143
     33 C         3.94073   5.953253   -0.630861 C.2        1 UNL1     0.2504
     34 C         4.950606   10.564792   -0.832409 C.3        1 UNL1     -0.0327
     35 O         2.563991   6.513074   1.214408 O.2        1 UNL1     -0.4528
     36 C         -0.680571   4.584299   0.813492 C.3        1 UNL1     0.0854
     37 C         -0.985676   3.323194   -0.083195 C.3        1 UNL1     0.0236
     38 C         -1.589182   2.063628   0.70485 C.3        1 UNL1     0.1131
     39 C         -0.866481   1.533121   2.008129 C.3        1 UNL1     0.0200
     40 C         0.79446   1.385671   2.052545 C.3        1 UNL1     0.0661
     41 C         1.755108   0.61457   0.886283 C.3        1 UNL1     0.0091
     42 C         3.46417   0.974573   0.325116 C.3        1 UNL1     0.0661
     43 C         7.513282   7.447754   -3.885821 C.2        1 UNL1     0.2131
     44 O         7.91556   8.344656   -4.604484 O.2        1 UNL1     -0.2851
     45 O         7.171543   9.959832   -2.686838 O.3        1 UNL1     -0.5056
     46 O         3.955062   4.74983   -0.498872 O.2        1 UNL1     -0.2836
     47 C         5.561457   1.314696   1.938658 C.3        1 UNL1     -0.0566
     48 O         3.910924   -0.436976   0.409127 O.3        1 UNL1     -0.3909
     49 C         0.922964   0.381735   -0.355014 C.3        1 UNL1     -0.0577
     50 O         1.395354   2.603216   2.445272 O.3        1 UNL1     -0.3910
     51 O         -0.807477   4.396143   2.204867 O.3        1 UNL1     -0.3753
     52 C         0.060738   3.160361   -1.233609 C.3        1 UNL1     -0.0564
     53 O         -2.191325   1.024463   -0.195086 O.3        1 UNL1     -0.4608
     54 C         -2.415796   -0.284934   0.141102 C.2        1 UNL1     0.3042
     55 O         -1.843959   -1.279034   -0.304551 O.2        1 UNL1     -0.2512
     56 C         -3.447392   -0.460768   1.21888 C.3        1 UNL1     0.0332
     57 C         -1.589073   2.204207   3.267367 C.3        1 UNL1     -0.0567
     58 C         1.854719   7.193343   -1.187991 C.3        1 UNL1     0.0210
     59 C         -1.159294   5.568212   2.938588 C.3        1 UNL1     0.0372
     60 C         0.649591   5.211594   0.584733 C.2        1 UNL1     -0.0208
     61 C         1.561416   5.646616   1.455409 C.2        1 UNL1     0.0882
     62 H         4.69336   2.728036   0.584703 H        1 UNL1     0.0365
     63 H         6.342305   3.601034   -0.245406 H        1 UNL1     0.0576
     64 H         8.347446   1.478879   -1.231633 H        1 UNL1     0.0615
     65 H         8.284179   4.596156   -1.422528 H        1 UNL1     0.0622
     66 H         -1.423764   5.331393   0.501144 H        1 UNL1     0.0645
     67 H         -1.849721   3.632969   -0.696405 H        1 UNL1     0.0362
     68 H         -2.536391   2.501965   1.054391 H        1 UNL1     0.0741
     69 H         -1.199556   0.522608   2.203915 H        1 UNL1     0.0359
     70 H         0.903819   0.726085   2.934616 H        1 UNL1     0.0600
     71 H         1.796695   -0.406221   1.314317 H        1 UNL1     0.0348
     72 H         3.357041   1.463876   1.304106 H        1 UNL1     0.0602
     73 H         0.769646   5.407674   -0.451794 H        1 UNL1     0.0628
     74 H         1.541634   5.437038   2.52542 H        1 UNL1     0.1022
     75 H         10.964939   2.237598   -3.41321 H        1 UNL1     0.0279
     76 H         10.810513   3.424625   -4.646263 H        1 UNL1     0.0279
     77 H         11.926868   3.646624   -3.239221 H        1 UNL1     0.0279
     78 H         9.081342   4.789243   -5.008612 H        1 UNL1     0.1553
     79 H         7.800346   3.319328   -4.655591 H        1 UNL1     0.1484
     80 H         4.050662   2.720567   -4.79998 H        1 UNL1     0.0317
     81 H         4.787996   4.246925   -5.26527 H        1 UNL1     0.0317
     82 H         6.700821   3.054062   -6.366126 H        1 UNL1     0.0428
     83 H         5.145645   2.579091   -7.012293 H        1 UNL1     0.0428
     84 H         6.916235   -0.056802   -4.180296 H        1 UNL1     0.0428
     85 H         7.828434   1.352699   -4.592996 H        1 UNL1     0.0428
     86 H         6.532122   1.42844   -2.462576 H        1 UNL1     0.0317
     87 H         5.037444   1.202144   -3.24812 H        1 UNL1     0.0317
     88 H         7.277995   0.866628   -7.367939 H        1 UNL1     0.0429
     89 H         6.916161   -0.619659   -6.486884 H        1 UNL1     0.0429
     90 H         4.374439   0.178834   -7.289905 H        1 UNL1     0.0308
     91 H         6.301067   1.028335   -9.530887 H        1 UNL1     0.0233
     92 H         4.532063   0.876775   -9.683041 H        1 UNL1     0.0233
     93 H         5.226423   2.109565   -8.652169 H        1 UNL1     0.0233
     94 H         4.672615   -1.495414   -9.150967 H        1 UNL1     0.0233
     95 H         6.373341   -1.60719   -8.672046 H        1 UNL1     0.0233
     96 H         5.094997   -2.066021   -7.523437 H        1 UNL1     0.0233
     97 H         4.155837   10.516685   -0.093993 H        1 UNL1     0.0280
     98 H         5.763156   11.134349   -0.362703 H        1 UNL1     0.0280
     99 H         4.579208   11.128892   -1.703586 H        1 UNL1     0.0280
     100 H         6.705991   10.710405   -3.011684 H        1 UNL1     0.2922
     101 H         4.697198   0.882576   2.442628 H        1 UNL1     0.0236
     102 H         6.012109   2.120091   2.517653 H        1 UNL1     0.0236
     103 H         6.316763   0.511138   1.939766 H        1 UNL1     0.0236
     104 H         4.328687   -0.562581   1.28358 H        1 UNL1     0.2098
     105 H         0.712438   1.28024   -0.929627 H        1 UNL1     0.0234
     106 H         1.292643   -0.407377   -1.009663 H        1 UNL1     0.0234
     107 H         0.0   -0.0   0.0 H        1 UNL1     0.0234
     108 H         1.19647   3.26174   1.752048 H        1 UNL1     0.2098
     109 H         1.084636   3.045292   -0.851376 H        1 UNL1     0.0234
     110 H         -0.171827   2.333332   -1.913079 H        1 UNL1     0.0234
     111 H         0.084728   4.042815   -1.886791 H        1 UNL1     0.0234
     112 H         -3.574405   -1.524348   1.442514 H        1 UNL1     0.0342
     113 H         -3.199678   0.100759   2.118418 H        1 UNL1     0.0342
     114 H         -4.406151   -0.079101   0.841687 H        1 UNL1     0.0342
     115 H         -2.653643   1.93708   3.317576 H        1 UNL1     0.0234
     116 H         -1.139617   1.944098   4.227774 H        1 UNL1     0.0234
     117 H         -1.648137   3.30451   3.205848 H        1 UNL1     0.0234
     118 H         0.953454   7.681718   -0.777848 H        1 UNL1     0.0309
     119 H         2.226347   7.780041   -2.034087 H        1 UNL1     0.0309
     120 H         1.465844   6.261412   -1.612712 H        1 UNL1     0.0309
     121 H         -0.359727   6.295637   2.801104 H        1 UNL1     0.0524
     122 H         -2.092386   6.027196   2.57156 H        1 UNL1     0.0524
     123 H         -1.273609   5.331597   3.992647 H        1 UNL1     0.0524
@<TRIPOS>BOND
     1     1     2    1
     2     1    42    1
     3     2     3    2
     4     3     4    1
     5     4     5    2
     6     5     7    1
     7     6    75    1
     8     6    76    1
     9     6    77    1
    10     7     9   am
    11     9    10    1
    12    10    11    2
    13    10    43    1
    14    11    14    1
    15    11    15    1
    16    12    13   ar
    17    12    27   ar
    18    12    43    1
    19    13    14    1
    20    13    30   ar
    21    14    17    2
    22    15    16    1
    23    16    17    1
    24    16    18    1
    25    16    22    1
    26    18    19    1
    27    19    20    1
    28    20    21    1
    29    21    22    1
    30    23    24    1
    31    23    88    1
    32    23    89    1
    33    24    25    1
    34    24    26    1
    35    24    90    1
    36    25    91    1
    37    25    92    1
    38    25    93    1
    39    26    94    1
    40    26    95    1
    41    26    96    1
    42    27    28   ar
    43    28    29   ar
    44    29    30   ar
    45    29    31    1
    46    30    33    1
    47    31    32    1
    48    32    33    1
    49    32    35    1
    50    34    97    1
    51    34    98    1
    52    34    99    1
    53    35    61    1
    54    36    37    1
    55    36    60    1
    56    37    38    1
    57    38    39    1
    58    39    40    1
    59    40    41    1
    60    41    42    1
    61    45   100    1
    62    47   101    1
    63    47   102    1
    64    47   103    1
    65    48   104    1
    66    49   105    1
    67    49   106    1
    68    49   107    1
    69    50   108    1
    70    51    59    1
    71    52   109    1
    72    52   110    1
    73    52   111    1
    74    53    54    1
    75    54    55    2
    76    54    56    1
    77    56   112    1
    78    56   113    1
    79    56   114    1
    80    57   115    1
    81    57   116    1
    82    57   117    1
    83    58   118    1
    84    58   119    1
    85    58   120    1
    86    59   121    1
    87    59   122    1
    88    59   123    1
    89    60    61    2
    90     1    47    1
    91     1    62    1
    92     2    63    1
    93     3    64    1
    94     4    65    1
    95     5     6    1
    96     7     8    2
    97     9    78    1
    98    15    79    1
    99    18    80    1
   100    18    81    1
   101    19    82    1
   102    19    83    1
   103    20    23    1
   104    21    84    1
   105    21    85    1
   106    22    86    1
   107    22    87    1
   108    27    45    1
   109    28    34    1
   110    32    58    1
   111    33    46    2
   112    36    51    1
   113    36    66    1
   114    37    52    1
   115    37    67    1
   116    38    53    1
   117    38    68    1
   118    42    48    1
   119    42    72    1
   120    43    44    2
   121    60    73    1
   122    61    74    1
   123    39    69    1
   124    39    57    1
   125    40    70    1
   126    40    50    1
   127    41    71    1
   128    41    49    1
