@<TRIPOS>MOLECULE
*****
 123 128 0 0 0
SMALL
GASTEIGER

@<TRIPOS>ATOM
     1 C         5.16845   1.816258   0.009325 C.3        1 UNL1     0.0009
     2 C         6.721728   2.01845   1.001032 C.2        1 UNL1     -0.0787
     3 C         7.618355   2.850911   1.775057 C.2        1 UNL1     -0.0649
     4 C         8.99893   2.376394   2.632497 C.2        1 UNL1     -0.0542
     5 C         9.903667   2.729786   3.663827 C.2        1 UNL1     0.0115
     6 C         10.341644   3.88009   4.611614 C.3        1 UNL1     -0.0348
     7 C         10.830141   1.588694   4.309231 C.2        1 UNL1     0.2441
     8 O         12.01177   1.450741   4.024194 O.2        1 UNL1     -0.2702
     9 N         10.265821   0.926435   5.413363 N.am        1 UNL1     -0.2772
     10 C         9.514526   -0.148202   4.996192 C.2        1 UNL1     0.1049
     11 C         8.280531   0.119508   4.609139 C.2        1 UNL1     0.0801
     12 C         9.584413   -2.160831   3.512354 C.ar        1 UNL1     0.0753
     13 C         8.336731   -1.710621   2.974573 C.ar        1 UNL1     0.0305
     14 C         7.581118   -0.626766   3.598558 C.2        1 UNL1     0.0924
     15 N         7.55592   1.242875   4.748834 N.pl3        1 UNL1     -0.3170
     16 C         6.215343   0.958405   4.310446 C.3        1 UNL1     0.1275
     17 N         6.375719   -0.150761   3.299627 N.2        1 UNL1     -0.2557
     18 C         5.472295   0.347815   5.494829 C.3        1 UNL1     0.0016
     19 C         5.557896   1.308399   6.670219 C.3        1 UNL1     0.0026
     20 N         4.965448   2.580058   6.279172 N.3        1 UNL1     -0.3018
     21 C         5.574198   3.215818   5.108872 C.3        1 UNL1     0.0026
     22 C         5.47303   2.235362   3.9391 C.3        1 UNL1     0.0016
     23 C         4.72524   3.46029   7.405287 C.3        1 UNL1     0.0012
     24 C         3.579232   2.920938   8.275644 C.3        1 UNL1     -0.0339
     25 C         2.755369   4.063545   8.891888 C.3        1 UNL1     -0.0615
     26 C         2.707923   1.978327   7.463803 C.3        1 UNL1     -0.0615
     27 C         10.238812   -3.271636   2.985105 C.ar        1 UNL1     0.1347
     28 C         9.72585   -4.033365   1.950363 C.ar        1 UNL1     0.0342
     29 C         8.520669   -3.542579   1.404623 C.ar        1 UNL1     0.1435
     30 C         7.872082   -2.410184   1.898827 C.ar        1 UNL1     0.0774
     31 O         7.83927   -4.234142   0.465239 O.3        1 UNL1     -0.4436
     32 C         6.508001   -3.699299   0.515618 C.3        1 UNL1     0.3143
     33 C         6.659586   -2.314962   1.112982 C.2        1 UNL1     0.2504
     34 C         10.240625   -5.372943   1.502438 C.3        1 UNL1     -0.0327
     35 O         6.067822   -3.524206   -0.836727 O.2        1 UNL1     -0.4528
     36 C         2.299463   -3.975054   -0.77117 C.3        1 UNL1     0.0854
     37 C         1.216865   -3.192579   0.067422 C.3        1 UNL1     0.0236
     38 C         0.041841   -2.528139   -0.798362 C.3        1 UNL1     0.1131
     39 C         0.400797   -1.618924   -2.042045 C.3        1 UNL1     0.0200
     40 C         1.627193   -0.492924   -1.939507 C.3        1 UNL1     0.0661
     41 C         1.819328   0.657661   -0.707902 C.3        1 UNL1     0.0091
     42 C         3.340701   1.386745   0.012699 C.3        1 UNL1     0.0661
     43 C         10.114392   -1.459476   4.707964 C.2        1 UNL1     0.2131
     44 O         10.916086   -1.955254   5.478826 O.2        1 UNL1     -0.2851
     45 O         11.47114   -3.616273   3.536494 O.3        1 UNL1     -0.5056
     46 O         5.951313   -1.345431   0.957374 O.2        1 UNL1     -0.2836
     47 C         5.340499   2.449828   -1.397434 C.3        1 UNL1     -0.0566
     48 O         2.843616   2.781973   -0.060523 O.3        1 UNL1     -0.3909
     49 C         0.915627   0.29072   0.448027 C.3        1 UNL1     -0.0577
     50 O         2.874428   -1.080621   -2.250537 O.3        1 UNL1     -0.3910
     51 O         2.202541   -3.8496   -2.17199 O.3        1 UNL1     -0.3753
     52 C         1.847452   -2.472497   1.303865 C.3        1 UNL1     -0.0564
     53 O         -1.14093   -2.102186   0.02136 O.3        1 UNL1     -0.4608
     54 C         -1.892288   -0.976214   -0.192129 C.2        1 UNL1     0.3042
     55 O         -3.117433   -0.900831   -0.276846 O.2        1 UNL1     -0.2512
     56 C         -1.078611   0.284295   -0.268018 C.3        1 UNL1     0.0332
     57 C         0.343857   -2.542174   -3.346859 C.3        1 UNL1     -0.0567
     58 C         5.717524   -4.586069   1.505727 C.3        1 UNL1     0.0210
     59 C         1.73724   -5.017057   -2.847567 C.3        1 UNL1     0.0372
     60 C         3.711896   -3.675377   -0.410078 C.2        1 UNL1     -0.0208
     61 C         4.769998   -3.434814   -1.18551 C.2        1 UNL1     0.0882
     62 H         5.398474   0.749327   -0.09772 H        1 UNL1     0.0365
     63 H         7.161128   1.024274   0.896103 H        1 UNL1     0.0576
     64 H         7.373254   3.888164   2.014096 H        1 UNL1     0.0615
     65 H         9.200031   1.366645   2.264464 H        1 UNL1     0.0622
     66 H         2.139582   -5.030995   -0.511414 H        1 UNL1     0.0645
     67 H         0.670531   -3.985919   0.606579 H        1 UNL1     0.0362
     68 H         -0.410763   -3.437369   -1.222593 H        1 UNL1     0.0741
     69 H         -0.459403   -1.010851   -2.288441 H        1 UNL1     0.0359
     70 H         1.387618   0.130845   -2.821877 H        1 UNL1     0.0600
     71 H         1.268506   1.509934   -1.151955 H        1 UNL1     0.0348
     72 H         3.635922   0.970424   -0.961384 H        1 UNL1     0.0602
     73 H         3.838206   -3.797771   0.636972 H        1 UNL1     0.0628
     74 H         4.717538   -3.239619   -2.257137 H        1 UNL1     0.1022
     75 H         10.461733   4.833083   4.042039 H        1 UNL1     0.0279
     76 H         9.637516   4.160576   5.391743 H        1 UNL1     0.0279
     77 H         11.3559   3.737876   5.012562 H        1 UNL1     0.0279
     78 H         9.643983   1.560168   5.911135 H        1 UNL1     0.1553
     79 H         7.769232   1.964284   5.412912 H        1 UNL1     0.1484
     80 H         4.431116   0.160537   5.205625 H        1 UNL1     0.0317
     81 H         5.901147   -0.622361   5.767769 H        1 UNL1     0.0317
     82 H         6.594945   1.443098   7.011244 H        1 UNL1     0.0428
     83 H         5.023298   0.852681   7.504231 H        1 UNL1     0.0428
     84 H         5.060859   4.127732   4.788394 H        1 UNL1     0.0428
     85 H         6.602523   3.545688   5.31148 H        1 UNL1     0.0428
     86 H         5.80445   2.780548   3.074855 H        1 UNL1     0.0317
     87 H         4.419821   2.024002   3.717344 H        1 UNL1     0.0317
     88 H         5.639044   3.494807   8.012794 H        1 UNL1     0.0429
     89 H         4.521016   4.486272   7.072983 H        1 UNL1     0.0429
     90 H         3.999197   2.315823   9.087851 H        1 UNL1     0.0308
     91 H         2.516583   4.828397   8.146849 H        1 UNL1     0.0233
     92 H         1.827393   3.681387   9.323658 H        1 UNL1     0.0233
     93 H         3.286766   4.568816   9.707458 H        1 UNL1     0.0233
     94 H         1.713739   1.898685   7.916673 H        1 UNL1     0.0233
     95 H         2.585667   2.364272   6.447898 H        1 UNL1     0.0233
     96 H         3.144753   0.977155   7.410873 H        1 UNL1     0.0233
     97 H         9.478579   -6.144033   1.565178 H        1 UNL1     0.0280
     98 H         10.570171   -5.360593   0.455297 H        1 UNL1     0.0280
     99 H         11.089501   -5.673483   2.13819 H        1 UNL1     0.0280
     100 H         12.077532   -2.901193   3.617558 H        1 UNL1     0.2922
     101 H         5.477572   1.664239   -2.140211 H        1 UNL1     0.0236
     102 H         6.134998   3.19421   -1.438042 H        1 UNL1     0.0236
     103 H         4.4345   2.987772   -1.722973 H        1 UNL1     0.0236
     104 H         2.343452   2.873477   -0.895049 H        1 UNL1     0.2098
     105 H         1.271176   -0.542368   1.049159 H        1 UNL1     0.0234
     106 H         0.634217   1.126101   1.089022 H        1 UNL1     0.0234
     107 H         -0.0   0.0   0.0 H        1 UNL1     0.0234
     108 H         3.568846   -0.458929   -1.958902 H        1 UNL1     0.2098
     109 H         2.321716   -3.178881   1.999427 H        1 UNL1     0.0234
     110 H         2.565104   -1.692412   1.027843 H        1 UNL1     0.0234
     111 H         1.088643   -1.939909   1.892512 H        1 UNL1     0.0234
     112 H         -1.74192   1.151904   -0.335988 H        1 UNL1     0.0342
     113 H         -0.39382   0.380972   0.573148 H        1 UNL1     0.0342
     114 H         -0.475592   0.248676   -1.185767 H        1 UNL1     0.0342
     115 H         0.004769   -1.981929   -4.229091 H        1 UNL1     0.0234
     116 H         1.296831   -3.010235   -3.601437 H        1 UNL1     0.0234
     117 H         -0.421186   -3.335624   -3.291293 H        1 UNL1     0.0234
     118 H         4.956293   -5.201158   0.994651 H        1 UNL1     0.0309
     119 H         6.360181   -5.237581   2.106332 H        1 UNL1     0.0309
     120 H         5.129825   -3.998391   2.219415 H        1 UNL1     0.0309
     121 H         0.668827   -5.106701   -2.653108 H        1 UNL1     0.0524
     122 H         1.871311   -4.949621   -3.940048 H        1 UNL1     0.0524
     123 H         2.259873   -5.896361   -2.481815 H        1 UNL1     0.0524
@<TRIPOS>BOND
     1     1     2    1
     2     1    42    1
     3     2     3    2
     4     3     4    1
     5     4     5    2
     6     5     7    1
     7     6    75    1
     8     6    76    1
     9     6    77    1
    10     7     9   am
    11     9    10    1
    12    10    11    2
    13    10    43    1
    14    11    14    1
    15    11    15    1
    16    12    13   ar
    17    12    27   ar
    18    12    43    1
    19    13    14    1
    20    13    30   ar
    21    14    17    2
    22    15    16    1
    23    16    17    1
    24    16    18    1
    25    16    22    1
    26    18    19    1
    27    19    20    1
    28    20    21    1
    29    21    22    1
    30    23    24    1
    31    23    88    1
    32    23    89    1
    33    24    25    1
    34    24    26    1
    35    24    90    1
    36    25    91    1
    37    25    92    1
    38    25    93    1
    39    26    94    1
    40    26    95    1
    41    26    96    1
    42    27    28   ar
    43    28    29   ar
    44    29    30   ar
    45    29    31    1
    46    30    33    1
    47    31    32    1
    48    32    33    1
    49    32    35    1
    50    34    97    1
    51    34    98    1
    52    34    99    1
    53    35    61    1
    54    36    37    1
    55    36    60    1
    56    37    38    1
    57    38    39    1
    58    39    40    1
    59    40    41    1
    60    41    42    1
    61    45   100    1
    62    47   101    1
    63    47   102    1
    64    47   103    1
    65    48   104    1
    66    49   105    1
    67    49   106    1
    68    49   107    1
    69    50   108    1
    70    51    59    1
    71    52   109    1
    72    52   110    1
    73    52   111    1
    74    53    54    1
    75    54    55    2
    76    54    56    1
    77    56   112    1
    78    56   113    1
    79    56   114    1
    80    57   115    1
    81    57   116    1
    82    57   117    1
    83    58   118    1
    84    58   119    1
    85    58   120    1
    86    59   121    1
    87    59   122    1
    88    59   123    1
    89    60    61    2
    90     1    47    1
    91     1    62    1
    92     2    63    1
    93     3    64    1
    94     4    65    1
    95     5     6    1
    96     7     8    2
    97     9    78    1
    98    15    79    1
    99    18    80    1
   100    18    81    1
   101    19    82    1
   102    19    83    1
   103    20    23    1
   104    21    84    1
   105    21    85    1
   106    22    86    1
   107    22    87    1
   108    27    45    1
   109    28    34    1
   110    32    58    1
   111    33    46    2
   112    36    51    1
   113    36    66    1
   114    37    52    1
   115    37    67    1
   116    38    53    1
   117    38    68    1
   118    42    48    1
   119    42    72    1
   120    43    44    2
   121    60    73    1
   122    61    74    1
   123    39    69    1
   124    39    57    1
   125    40    70    1
   126    40    50    1
   127    41    71    1
   128    41    49    1
