@<TRIPOS>MOLECULE
*****
 123 128 0 0 0
SMALL
GASTEIGER

@<TRIPOS>ATOM
     1 C         5.034025   2.065694   0.63502 C.3        1 UNL1     0.0009
     2 C         6.416343   3.010386   -0.161092 C.2        1 UNL1     -0.0787
     3 C         7.710382   3.035126   -0.809856 C.2        1 UNL1     -0.0649
     4 C         8.50143   4.361533   -1.503576 C.2        1 UNL1     -0.0542
     5 C         9.508301   4.766794   -2.414099 C.2        1 UNL1     0.0115
     6 C         10.691571   4.262524   -3.285251 C.3        1 UNL1     -0.0348
     7 C         9.498862   6.2758   -2.96164 C.2        1 UNL1     0.2441
     8 O         10.253306   7.14147   -2.539791 O.2        1 UNL1     -0.2702
     9 N         8.750158   6.471866   -4.135161 N.am        1 UNL1     -0.2772
     10 C         7.437952   6.748408   -3.827003 C.2        1 UNL1     0.1049
     11 C         6.664443   5.70544   -3.585914 C.2        1 UNL1     0.0801
     12 C         6.003764   8.196048   -2.376217 C.ar        1 UNL1     0.0753
     13 C         5.326583   6.997518   -1.984352 C.ar        1 UNL1     0.0305
     14 C         5.550234   5.730782   -2.67747 C.2        1 UNL1     0.0924
     15 N         6.889311   4.396746   -3.793958 N.pl3        1 UNL1     -0.3170
     16 C         5.664524   3.691943   -3.523025 C.3        1 UNL1     0.1275
     17 N         4.945182   4.557249   -2.517283 N.2        1 UNL1     -0.2557
     18 C         4.825878   3.736606   -4.796751 C.3        1 UNL1     0.0016
     19 C         5.644732   3.156232   -5.938781 C.3        1 UNL1     0.0026
     20 N         6.013437   1.788167   -5.601912 N.3        1 UNL1     -0.3018
     21 C         6.770835   1.636784   -4.357806 C.3        1 UNL1     0.0026
     22 C         5.927797   2.22207   -3.223513 C.3        1 UNL1     0.0016
     23 C         6.532841   1.048773   -6.73512 C.3        1 UNL1     0.0012
     24 C         5.41224   0.752157   -7.744094 C.3        1 UNL1     -0.0339
     25 C         5.75131   1.302707   -9.139079 C.3        1 UNL1     -0.0615
     26 C         5.130025   -0.739632   -7.785318 C.3        1 UNL1     -0.0615
     27 C         5.696872   9.422498   -1.791619 C.ar        1 UNL1     0.1347
     28 C         4.70797   9.58114   -0.837178 C.ar        1 UNL1     0.0342
     29 C         4.088445   8.379908   -0.431724 C.ar        1 UNL1     0.1435
     30 C         4.410723   7.138937   -0.982495 C.ar        1 UNL1     0.0774
     31 O         3.031019   8.381181   0.409023 O.3        1 UNL1     -0.4436
     32 C         2.406584   7.104204   0.208313 C.3        1 UNL1     0.3143
     33 C         3.498851   6.211802   -0.345569 C.2        1 UNL1     0.2504
     34 C         4.153433   10.891359   -0.351467 C.3        1 UNL1     -0.0327
     35 O         2.063237   6.590045   1.500987 O.2        1 UNL1     -0.4528
     36 C         -1.018949   4.436859   0.979445 C.3        1 UNL1     0.0854
     37 C         -1.216488   3.193296   0.029681 C.3        1 UNL1     0.0236
     38 C         -1.729909   1.860593   0.759096 C.3        1 UNL1     0.1131
     39 C         -0.982742   1.334742   2.05041 C.3        1 UNL1     0.0200
     40 C         0.684039   1.312889   2.112068 C.3        1 UNL1     0.0661
     41 C         1.713697   0.665021   0.929832 C.3        1 UNL1     0.0091
     42 C         3.396017   1.176803   0.407068 C.3        1 UNL1     0.0661
     43 C         6.981046   8.104694   -3.489247 C.2        1 UNL1     0.2131
     44 O         7.320966   9.057924   -4.166405 O.2        1 UNL1     -0.2851
     45 O         6.434267   10.532982   -2.19722 O.3        1 UNL1     -0.5056
     46 O         3.604202   5.008649   -0.260844 O.2        1 UNL1     -0.2836
     47 C         5.443345   1.610797   2.061732 C.3        1 UNL1     -0.0566
     48 O         3.949001   -0.198743   0.441677 O.3        1 UNL1     -0.3909
     49 C         0.915414   0.419527   -0.331109 C.3        1 UNL1     -0.0577
     50 O         1.185285   2.55595   2.560706 O.3        1 UNL1     -0.3910
     51 O         -1.146094   4.18365   2.360442 O.3        1 UNL1     -0.3753
     52 C         -0.148246   3.157334   -1.111596 C.3        1 UNL1     -0.0564
     53 O         -2.240612   0.815589   -0.18931 O.3        1 UNL1     -0.4608
     54 C         -2.347904   -0.522772   0.084932 C.2        1 UNL1     0.3042
     55 O         -1.597842   -1.424026   -0.287878 O.2        1 UNL1     -0.2512
     56 C         -3.496999   -0.860638   0.991651 C.3        1 UNL1     0.0332
     57 C         -1.768382   1.897401   3.324913 C.3        1 UNL1     -0.0567
     58 C         1.329863   7.310413   -0.88241 C.3        1 UNL1     0.0210
     59 C         -1.557044   5.30568   3.140208 C.3        1 UNL1     0.0372
     60 C         0.261467   5.172606   0.794051 C.2        1 UNL1     -0.0208
     61 C         1.127668   5.640552   1.693755 C.2        1 UNL1     0.0882
     62 H         4.483917   3.007124   0.7525 H        1 UNL1     0.0365
     63 H         6.06979   4.036231   -0.019624 H        1 UNL1     0.0576
     64 H         8.242676   2.114862   -1.060624 H        1 UNL1     0.0615
     65 H         7.942082   5.223358   -1.129583 H        1 UNL1     0.0622
     66 H         -1.813934   5.136995   0.686436 H        1 UNL1     0.0645
     67 H         -2.095087   3.46064   -0.582814 H        1 UNL1     0.0362
     68 H         -2.711738   2.210876   1.112416 H        1 UNL1     0.0741
     69 H         -1.239268   0.294678   2.201639 H        1 UNL1     0.0359
     70 H         0.834201   0.628576   2.968938 H        1 UNL1     0.0600
     71 H         1.828975   -0.366029   1.317908 H        1 UNL1     0.0348
     72 H         3.240993   1.61665   1.402968 H        1 UNL1     0.0602
     73 H         0.377325   5.418887   -0.23219 H        1 UNL1     0.0628
     74 H         1.112454   5.38713   2.754313 H        1 UNL1     0.1022
     75 H         10.767915   3.149504   -3.236342 H        1 UNL1     0.0279
     76 H         10.618952   4.445572   -4.354965 H        1 UNL1     0.0279
     77 H         11.671475   4.564727   -2.887554 H        1 UNL1     0.0279
     78 H         8.760873   5.621097   -4.693869 H        1 UNL1     0.1553
     79 H         7.59289   4.044624   -4.41679 H        1 UNL1     0.1484
     80 H         3.902103   3.167575   -4.636718 H        1 UNL1     0.0317
     81 H         4.524944   4.763287   -5.031303 H        1 UNL1     0.0317
     82 H         6.535612   3.76531   -6.151552 H        1 UNL1     0.0428
     83 H         5.028637   3.199389   -6.837455 H        1 UNL1     0.0428
     84 H         6.965776   0.594436   -4.087028 H        1 UNL1     0.0428
     85 H         7.771365   2.084963   -4.431235 H        1 UNL1     0.0428
     86 H         6.450049   1.975585   -2.317705 H        1 UNL1     0.0317
     87 H         4.985788   1.667647   -3.13224 H        1 UNL1     0.0317
     88 H         7.29229   1.669212   -7.228666 H        1 UNL1     0.0429
     89 H         7.031249   0.125066   -6.413986 H        1 UNL1     0.0429
     90 H         4.484201   1.223129   -7.398924 H        1 UNL1     0.0308
     91 H         6.777808   1.055157   -9.425648 H        1 UNL1     0.0233
     92 H         5.063708   0.904749   -9.88904 H        1 UNL1     0.0233
     93 H         5.661215   2.394534   -9.190378 H        1 UNL1     0.0233
     94 H         4.644802   -1.006261   -8.730466 H        1 UNL1     0.0233
     95 H         6.067206   -1.299193   -7.717902 H        1 UNL1     0.0233
     96 H         4.476648   -1.045017   -6.963244 H        1 UNL1     0.0233
     97 H         3.303006   10.753853   0.309666 H        1 UNL1     0.0280
     98 H         4.891582   11.465357   0.223788 H        1 UNL1     0.0280
     99 H         3.8269   11.496096   -1.213305 H        1 UNL1     0.0280
     100 H         5.916206   11.284028   -2.427794 H        1 UNL1     0.2922
     101 H         4.551458   1.38231   2.644817 H        1 UNL1     0.0236
     102 H         6.092263   2.323732   2.569286 H        1 UNL1     0.0236
     103 H         6.017215   0.669169   2.047478 H        1 UNL1     0.0236
     104 H         4.279382   -0.361133   1.346911 H        1 UNL1     0.2098
     105 H         0.683959   1.317706   -0.898131 H        1 UNL1     0.0234
     106 H         1.326399   -0.346696   -0.988316 H        1 UNL1     0.0234
     107 H         0.0   -0.0   0.0 H        1 UNL1     0.0234
     108 H         1.001869   3.212248   1.861136 H        1 UNL1     0.2098
     109 H         0.877812   3.118733   -0.719899 H        1 UNL1     0.0234
     110 H         -0.301607   2.335184   -1.81891 H        1 UNL1     0.0234
     111 H         -0.193864   4.058715   -1.737199 H        1 UNL1     0.0234
     112 H         -3.513147   -1.937244   1.186598 H        1 UNL1     0.0342
     113 H         -3.464464   -0.295566   1.921962 H        1 UNL1     0.0342
     114 H         -4.430415   -0.597888   0.475066 H        1 UNL1     0.0342
     115 H         -2.841792   1.667853   3.277094 H        1 UNL1     0.0234
     116 H         -1.394235   1.520744   4.278954 H        1 UNL1     0.0234
     117 H         -1.788325   2.999541   3.378121 H        1 UNL1     0.0234
     118 H         0.309134   7.315816   -0.46159 H        1 UNL1     0.0309
     119 H         1.480693   8.222892   -1.467931 H        1 UNL1     0.0309
     120 H         1.300719   6.487688   -1.605169 H        1 UNL1     0.0309
     121 H         -1.188086   5.15524   4.154405 H        1 UNL1     0.0524
     122 H         -1.130286   6.252194   2.76869 H        1 UNL1     0.0524
     123 H         -2.640488   5.384632   3.143347 H        1 UNL1     0.0524
@<TRIPOS>BOND
     1     1     2    1
     2     1    42    1
     3     2     3    2
     4     3     4    1
     5     4     5    2
     6     5     7    1
     7     6    75    1
     8     6    76    1
     9     6    77    1
    10     7     9   am
    11     9    10    1
    12    10    11    2
    13    10    43    1
    14    11    14    1
    15    11    15    1
    16    12    13   ar
    17    12    27   ar
    18    12    43    1
    19    13    14    1
    20    13    30   ar
    21    14    17    2
    22    15    16    1
    23    16    17    1
    24    16    18    1
    25    16    22    1
    26    18    19    1
    27    19    20    1
    28    20    21    1
    29    21    22    1
    30    23    24    1
    31    23    88    1
    32    23    89    1
    33    24    25    1
    34    24    26    1
    35    24    90    1
    36    25    91    1
    37    25    92    1
    38    25    93    1
    39    26    94    1
    40    26    95    1
    41    26    96    1
    42    27    28   ar
    43    28    29   ar
    44    29    30   ar
    45    29    31    1
    46    30    33    1
    47    31    32    1
    48    32    33    1
    49    32    35    1
    50    34    97    1
    51    34    98    1
    52    34    99    1
    53    35    61    1
    54    36    37    1
    55    36    60    1
    56    37    38    1
    57    38    39    1
    58    39    40    1
    59    40    41    1
    60    41    42    1
    61    45   100    1
    62    47   101    1
    63    47   102    1
    64    47   103    1
    65    48   104    1
    66    49   105    1
    67    49   106    1
    68    49   107    1
    69    50   108    1
    70    51    59    1
    71    52   109    1
    72    52   110    1
    73    52   111    1
    74    53    54    1
    75    54    55    2
    76    54    56    1
    77    56   112    1
    78    56   113    1
    79    56   114    1
    80    57   115    1
    81    57   116    1
    82    57   117    1
    83    58   118    1
    84    58   119    1
    85    58   120    1
    86    59   121    1
    87    59   122    1
    88    59   123    1
    89    60    61    2
    90     1    47    1
    91     1    62    1
    92     2    63    1
    93     3    64    1
    94     4    65    1
    95     5     6    1
    96     7     8    2
    97     9    78    1
    98    15    79    1
    99    18    80    1
   100    18    81    1
   101    19    82    1
   102    19    83    1
   103    20    23    1
   104    21    84    1
   105    21    85    1
   106    22    86    1
   107    22    87    1
   108    27    45    1
   109    28    34    1
   110    32    58    1
   111    33    46    2
   112    36    51    1
   113    36    66    1
   114    37    52    1
   115    37    67    1
   116    38    53    1
   117    38    68    1
   118    42    48    1
   119    42    72    1
   120    43    44    2
   121    60    73    1
   122    61    74    1
   123    39    69    1
   124    39    57    1
   125    40    70    1
   126    40    50    1
   127    41    71    1
   128    41    49    1
