@<TRIPOS>MOLECULE
*****
 123 128 0 0 0
SMALL
GASTEIGER

@<TRIPOS>ATOM
     1 C         1.777743   -1.737219   -4.880706 C.3        1 UNL1     0.0009
     2 C         1.861113   -1.386766   -6.699295 C.2        1 UNL1     -0.0787
     3 C         1.383074   -1.617813   -8.046196 C.2        1 UNL1     -0.0649
     4 C         1.835886   -0.810659   -9.463878 C.2        1 UNL1     -0.0542
     5 C         1.464116   -0.508509   -10.797133 C.2        1 UNL1     0.0115
     6 C         0.454062   -0.847762   -11.92763 C.3        1 UNL1     -0.0348
     7 C         2.180283   0.718671   -11.54421 C.2        1 UNL1     0.2441
     8 O         3.068943   0.56709   -12.371151 O.2        1 UNL1     -0.2702
     9 N         1.542748   1.960813   -11.380548 N.am        1 UNL1     -0.2772
     10 C         2.005143   2.592497   -10.248961 C.2        1 UNL1     0.1049
     11 C         1.445272   2.228836   -9.109436 C.2        1 UNL1     0.0801
     12 C         4.107033   3.236351   -9.055294 C.ar        1 UNL1     0.0753
     13 C         3.534655   2.637557   -7.888059 C.ar        1 UNL1     0.0305
     14 C         2.131537   2.231925   -7.845946 C.2        1 UNL1     0.0924
     15 N         0.345716   1.489293   -8.884535 N.pl3        1 UNL1     -0.3170
     16 C         0.068468   1.532082   -7.47331 C.3        1 UNL1     0.1275
     17 N         1.414995   1.758473   -6.830398 N.2        1 UNL1     -0.2557
     18 C         -0.744285   2.796187   -7.210301 C.3        1 UNL1     0.0016
     19 C         -1.982093   2.770914   -8.092787 C.3        1 UNL1     0.0026
     20 N         -2.754923   1.576668   -7.780478 N.3        1 UNL1     -0.3018
     21 C         -2.036759   0.311004   -7.943897 C.3        1 UNL1     0.0026
     22 C         -0.7998   0.356358   -7.045137 C.3        1 UNL1     0.0016
     23 C         -4.090421   1.606133   -8.342813 C.3        1 UNL1     0.0012
     24 C         -4.958583   2.644439   -7.614823 C.3        1 UNL1     -0.0339
     25 C         -4.967835   3.990288   -8.358234 C.3        1 UNL1     -0.0615
     26 C         -6.364429   2.103507   -7.420474 C.3        1 UNL1     -0.0615
     27 C         5.409425   3.730159   -9.048339 C.ar        1 UNL1     0.1347
     28 C         6.219126   3.717337   -7.926613 C.ar        1 UNL1     0.0342
     29 C         5.651953   3.078976   -6.803236 C.ar        1 UNL1     0.1435
     30 C         4.361752   2.547381   -6.806258 C.ar        1 UNL1     0.0774
     31 O         6.272013   3.082353   -5.603019 O.3        1 UNL1     -0.4436
     32 C         5.232802   2.788781   -4.657118 C.3        1 UNL1     0.3143
     33 C         4.163584   2.069046   -5.453967 C.2        1 UNL1     0.2504
     34 C         7.523519   4.44868   -7.772359 C.3        1 UNL1     -0.0327
     35 O         5.763583   1.842427   -3.721202 O.2        1 UNL1     -0.4528
     36 C         3.962464   2.496943   -0.444669 C.3        1 UNL1     0.0854
     37 C         2.415446   2.482595   -0.13799 C.3        1 UNL1     0.0236
     38 C         1.972086   1.507748   1.055681 C.3        1 UNL1     0.1131
     39 C         2.451956   0.000436   1.057737 C.3        1 UNL1     0.0200
     40 C         2.415144   -0.899859   -0.346027 C.3        1 UNL1     0.0661
     41 C         1.09275   -1.045888   -1.398433 C.3        1 UNL1     0.0091
     42 C         1.039402   -1.272876   -3.218057 C.3        1 UNL1     0.0661
     43 C         3.237309   3.395067   -10.247203 C.2        1 UNL1     0.2131
     44 O         3.448441   4.205252   -11.131375 O.2        1 UNL1     -0.2851
     45 O         5.906291   4.256084   -10.239122 O.3        1 UNL1     -0.5056
     46 O         3.346594   1.264934   -5.064371 O.2        1 UNL1     -0.2836
     47 C         2.415084   -3.117747   -4.567785 C.3        1 UNL1     -0.0566
     48 O         0.046021   -2.372703   -3.166168 O.3        1 UNL1     -0.3909
     49 C         0.077134   0.021552   -1.056979 C.3        1 UNL1     -0.0577
     50 O         3.605192   -0.721156   -1.087361 O.3        1 UNL1     -0.3910
     51 O         4.734808   1.535349   0.238158 O.3        1 UNL1     -0.3753
     52 C         1.562924   2.645074   -1.438665 C.3        1 UNL1     -0.0564
     53 O         0.581717   1.766879   1.55773 O.3        1 UNL1     -0.4608
     54 C         -0.186739   0.879291   2.264549 C.2        1 UNL1     0.3042
     55 O         -1.212178   0.31359   1.887329 O.2        1 UNL1     -0.2512
     56 C         0.363791   0.557253   3.624667 C.3        1 UNL1     0.0332
     57 C         3.766885   -0.085841   1.964209 C.3        1 UNL1     -0.0567
     58 C         4.672108   4.151007   -4.186489 C.3        1 UNL1     0.0210
     59 C         6.089804   1.913848   0.476046 C.3        1 UNL1     0.0372
     60 C         4.318902   2.389263   -1.885682 C.2        1 UNL1     -0.0208
     61 C         5.244303   1.646148   -2.494088 C.2        1 UNL1     0.0882
     62 H         2.56135   -0.987055   -4.719692 H        1 UNL1     0.0365
     63 H         2.714622   -0.70662   -6.736643 H        1 UNL1     0.0576
     64 H         0.523699   -2.261751   -8.246015 H        1 UNL1     0.0615
     65 H         2.738815   -0.265281   -9.176191 H        1 UNL1     0.0622
     66 H         4.298007   3.493548   -0.124928 H        1 UNL1     0.0645
     67 H         2.220766   3.474729   0.305099 H        1 UNL1     0.0362
     68 H         2.506404   1.985195   1.891186 H        1 UNL1     0.0741
     69 H         1.812638   -0.567436   1.720461 H        1 UNL1     0.0359
     70 H         2.503846   -1.91829   0.078225 H        1 UNL1     0.0600
     71 H         0.608889   -1.948662   -0.976729 H        1 UNL1     0.0348
     72 H         2.049559   -1.573748   -2.90441 H        1 UNL1     0.0602
     73 H         3.786235   3.126605   -2.43326 H        1 UNL1     0.0628
     74 H         5.791596   0.831585   -2.018488 H        1 UNL1     0.1022
     75 H         -0.273688   -1.621845   -11.583813 H        1 UNL1     0.0279
     76 H         -0.198587   -0.040883   -12.253305 H        1 UNL1     0.0279
     77 H         0.925793   -1.357342   -12.780565 H        1 UNL1     0.0279
     78 H         0.541523   1.818748   -11.264607 H        1 UNL1     0.1553
     79 H         -0.364915   1.324091   -9.57348 H        1 UNL1     0.1484
     80 H         -1.011024   2.835012   -6.147235 H        1 UNL1     0.0317
     81 H         -0.150813   3.69313   -7.417509 H        1 UNL1     0.0317
     82 H         -1.721412   2.805611   -9.160848 H        1 UNL1     0.0428
     83 H         -2.546166   3.681956   -7.89061 H        1 UNL1     0.0428
     84 H         -2.612598   -0.564136   -7.627117 H        1 UNL1     0.0428
     85 H         -1.800831   0.107981   -8.997669 H        1 UNL1     0.0428
     86 H         -0.374491   -0.629171   -7.087954 H        1 UNL1     0.0317
     87 H         -1.10261   0.456722   -5.995695 H        1 UNL1     0.0317
     88 H         -4.010114   1.896244   -9.398598 H        1 UNL1     0.0429
     89 H         -4.556039   0.612504   -8.316835 H        1 UNL1     0.0429
     90 H         -4.557434   2.804926   -6.607084 H        1 UNL1     0.0308
     91 H         -5.331212   3.87564   -9.383863 H        1 UNL1     0.0233
     92 H         -5.594299   4.716395   -7.83486 H        1 UNL1     0.0233
     93 H         -3.968982   4.438562   -8.422868 H        1 UNL1     0.0233
     94 H         -7.032182   2.901463   -7.078117 H        1 UNL1     0.0233
     95 H         -6.752782   1.722837   -8.369281 H        1 UNL1     0.0233
     96 H         -6.383101   1.296815   -6.682322 H        1 UNL1     0.0233
     97 H         7.952714   4.312337   -6.784213 H        1 UNL1     0.0280
     98 H         8.283042   4.094261   -8.481421 H        1 UNL1     0.0280
     99 H         7.363185   5.527278   -7.933648 H        1 UNL1     0.0280
     100 H         6.243685   5.131849   -10.169675 H        1 UNL1     0.2922
     101 H         2.397867   -3.295452   -3.492712 H        1 UNL1     0.0236
     102 H         3.414743   -3.232915   -4.985399 H        1 UNL1     0.0236
     103 H         1.833116   -3.949703   -4.998315 H        1 UNL1     0.0236
     104 H         0.539295   -3.216268   -3.173251 H        1 UNL1     0.2098
     105 H         0.367594   1.027637   -1.348935 H        1 UNL1     0.0234
     106 H         -0.93761   -0.191211   -1.393064 H        1 UNL1     0.0234
     107 H         -0.0   0.0   0.0 H        1 UNL1     0.0234
     108 H         3.637765   0.215355   -1.362415 H        1 UNL1     0.2098
     109 H         1.756545   1.844055   -2.165709 H        1 UNL1     0.0234
     110 H         0.487197   2.710046   -1.242877 H        1 UNL1     0.0234
     111 H         1.795621   3.582835   -1.960588 H        1 UNL1     0.0234
     112 H         -0.292326   -0.156275   4.132342 H        1 UNL1     0.0342
     113 H         1.38487   0.18207   3.57487 H        1 UNL1     0.0342
     114 H         0.377645   1.482472   4.217072 H        1 UNL1     0.0342
     115 H         3.570571   0.226066   2.999276 H        1 UNL1     0.0234
     116 H         4.216591   -1.08007   2.000551 H        1 UNL1     0.0234
     117 H         4.551628   0.632359   1.670425 H        1 UNL1     0.0234
     118 H         5.285215   4.596677   -3.383692 H        1 UNL1     0.0309
     119 H         4.565294   4.875769   -4.999824 H        1 UNL1     0.0309
     120 H         3.68132   4.061888   -3.727682 H        1 UNL1     0.0309
     121 H         6.56737   2.056097   -0.493001 H        1 UNL1     0.0524
     122 H         6.167674   2.865663   1.027428 H        1 UNL1     0.0524
     123 H         6.603719   1.138377   1.036966 H        1 UNL1     0.0524
@<TRIPOS>BOND
     1     1     2    1
     2     1    42    1
     3     2     3    2
     4     3     4    1
     5     4     5    2
     6     5     7    1
     7     6    75    1
     8     6    76    1
     9     6    77    1
    10     7     9   am
    11     9    10    1
    12    10    11    2
    13    10    43    1
    14    11    14    1
    15    11    15    1
    16    12    13   ar
    17    12    27   ar
    18    12    43    1
    19    13    14    1
    20    13    30   ar
    21    14    17    2
    22    15    16    1
    23    16    17    1
    24    16    18    1
    25    16    22    1
    26    18    19    1
    27    19    20    1
    28    20    21    1
    29    21    22    1
    30    23    24    1
    31    23    88    1
    32    23    89    1
    33    24    25    1
    34    24    26    1
    35    24    90    1
    36    25    91    1
    37    25    92    1
    38    25    93    1
    39    26    94    1
    40    26    95    1
    41    26    96    1
    42    27    28   ar
    43    28    29   ar
    44    29    30   ar
    45    29    31    1
    46    30    33    1
    47    31    32    1
    48    32    33    1
    49    32    35    1
    50    34    97    1
    51    34    98    1
    52    34    99    1
    53    35    61    1
    54    36    37    1
    55    36    60    1
    56    37    38    1
    57    38    39    1
    58    39    40    1
    59    40    41    1
    60    41    42    1
    61    45   100    1
    62    47   101    1
    63    47   102    1
    64    47   103    1
    65    48   104    1
    66    49   105    1
    67    49   106    1
    68    49   107    1
    69    50   108    1
    70    51    59    1
    71    52   109    1
    72    52   110    1
    73    52   111    1
    74    53    54    1
    75    54    55    2
    76    54    56    1
    77    56   112    1
    78    56   113    1
    79    56   114    1
    80    57   115    1
    81    57   116    1
    82    57   117    1
    83    58   118    1
    84    58   119    1
    85    58   120    1
    86    59   121    1
    87    59   122    1
    88    59   123    1
    89    60    61    2
    90     1    47    1
    91     1    62    1
    92     2    63    1
    93     3    64    1
    94     4    65    1
    95     5     6    1
    96     7     8    2
    97     9    78    1
    98    15    79    1
    99    18    80    1
   100    18    81    1
   101    19    82    1
   102    19    83    1
   103    20    23    1
   104    21    84    1
   105    21    85    1
   106    22    86    1
   107    22    87    1
   108    27    45    1
   109    28    34    1
   110    32    58    1
   111    33    46    2
   112    36    51    1
   113    36    66    1
   114    37    52    1
   115    37    67    1
   116    38    53    1
   117    38    68    1
   118    42    48    1
   119    42    72    1
   120    43    44    2
   121    60    73    1
   122    61    74    1
   123    39    69    1
   124    39    57    1
   125    40    70    1
   126    40    50    1
   127    41    71    1
   128    41    49    1
