@<TRIPOS>MOLECULE
*****
 123 128 0 0 0
SMALL
GASTEIGER

@<TRIPOS>ATOM
     1 C         3.774991   -1.749018   -2.844375 C.3        1 UNL1     0.0009
     2 C         4.129823   -1.92194   -4.655791 C.2        1 UNL1     -0.0787
     3 C         4.377934   -2.75563   -5.813136 C.2        1 UNL1     -0.0649
     4 C         4.539411   -2.273021   -7.427871 C.2        1 UNL1     -0.0542
     5 C         4.483951   -2.698708   -8.77798 C.2        1 UNL1     0.0115
     6 C         4.393042   -3.945997   -9.69957 C.3        1 UNL1     -0.0348
     7 C         4.327311   -1.596288   -9.934321 C.2        1 UNL1     0.2441
     8 O         5.262689   -1.222613   -10.628555 O.2        1 UNL1     -0.2702
     9 N         2.999514   -1.280677   -10.271211 N.am        1 UNL1     -0.2772
     10 C         2.527922   -0.26813   -9.467675 C.2        1 UNL1     0.1049
     11 C         2.072006   -0.630253   -8.282251 C.2        1 UNL1     0.0801
     12 C         3.106013   2.003473   -8.594197 C.ar        1 UNL1     0.0753
     13 C         2.796463   1.495662   -7.292308 C.ar        1 UNL1     0.0305
     14 C         2.143412   0.201128   -7.111318 C.2        1 UNL1     0.0924
     15 N         1.795006   -1.853953   -7.800217 N.pl3        1 UNL1     -0.3170
     16 C         1.16209   -1.688501   -6.518695 C.3        1 UNL1     0.1275
     17 N         1.697655   -0.376569   -5.999341 N.2        1 UNL1     -0.2557
     18 C         -0.325635   -1.46712   -6.774362 C.3        1 UNL1     0.0016
     19 C         -0.85759   -2.633829   -7.59131 C.3        1 UNL1     0.0026
     20 N         -0.631203   -3.866293   -6.849145 N.3        1 UNL1     -0.3018
     21 C         0.765761   -4.135358   -6.502065 C.3        1 UNL1     0.0026
     22 C         1.278394   -2.95305   -5.6779 C.3        1 UNL1     0.0016
     23 C         -1.360776   -4.9943   -7.393174 C.3        1 UNL1     0.0012
     24 C         -2.423741   -4.515851   -8.394647 C.3        1 UNL1     -0.0339
     25 C         -2.009337   -3.196811   -9.067298 C.3        1 UNL1     -0.0615
     26 C         -2.700941   -5.602627   -9.418785 C.3        1 UNL1     -0.0615
     27 C         3.617203   3.28783   -8.765166 C.ar        1 UNL1     0.1347
     28 C         3.823002   4.167602   -7.717455 C.ar        1 UNL1     0.0342
     29 C         3.557363   3.628807   -6.440623 C.ar        1 UNL1     0.1435
     30 C         3.079175   2.331617   -6.251266 C.ar        1 UNL1     0.0774
     31 O         3.603978   4.394814   -5.328838 O.3        1 UNL1     -0.4436
     32 C         2.842535   3.666071   -4.354153 C.3        1 UNL1     0.3143
     33 C         2.876703   2.224999   -4.82144 C.2        1 UNL1     0.2504
     34 C         4.127029   5.634403   -7.844586 C.3        1 UNL1     -0.0327
     35 O         3.567175   3.721494   -3.119213 O.2        1 UNL1     -0.4528
     36 C         0.953131   3.570715   -0.3711 C.3        1 UNL1     0.0854
     37 C         -0.14438   2.47113   -0.099248 C.3        1 UNL1     0.0236
     38 C         -0.116649   1.838276   1.374004 C.3        1 UNL1     0.1131
     39 C         1.241802   1.283314   1.964681 C.3        1 UNL1     0.0200
     40 C         2.260143   0.36101   1.018756 C.3        1 UNL1     0.0661
     41 C         1.806992   -0.984934   0.091018 C.3        1 UNL1     0.0091
     42 C         2.472277   -1.612632   -1.4992 C.3        1 UNL1     0.0661
     43 C         2.780703   1.149896   -9.763744 C.2        1 UNL1     0.2131
     44 O         2.622134   1.583846   -10.890368 O.2        1 UNL1     -0.2851
     45 O         3.934662   3.688536   -10.061349 O.3        1 UNL1     -0.5056
     46 O         2.780823   1.21575   -4.159565 O.2        1 UNL1     -0.2836
     47 C         5.056258   -2.031311   -2.014527 C.3        1 UNL1     -0.0566
     48 O         2.566166   -3.018254   -1.036028 O.3        1 UNL1     -0.3909
     49 C         0.298841   -1.016847   -0.01833 C.3        1 UNL1     -0.0577
     50 O         3.139139   1.184103   0.278751 O.3        1 UNL1     -0.3910
     51 O         1.922499   3.736527   0.638981 O.3        1 UNL1     -0.3753
     52 C         -0.428536   1.605958   -1.370343 C.3        1 UNL1     -0.0564
     53 O         -1.359009   1.071497   1.721736 O.3        1 UNL1     -0.4608
     54 C         -1.39205   -0.200662   2.230114 C.2        1 UNL1     0.3042
     55 O         -0.488402   -1.035507   2.212982 O.2        1 UNL1     -0.2512
     56 C         -2.681778   -0.538329   2.922427 C.3        1 UNL1     0.0332
     57 C         1.894499   2.446215   2.847757 C.3        1 UNL1     -0.0567
     58 C         1.390407   4.188509   -4.453728 C.3        1 UNL1     0.0210
     59 C         2.935555   4.697513   0.345569 C.3        1 UNL1     0.0372
     60 C         1.691883   3.418132   -1.654114 C.2        1 UNL1     -0.0208
     61 C         2.995847   3.513476   -1.917423 C.2        1 UNL1     0.0882
     62 H         3.72197   -0.661811   -2.978095 H        1 UNL1     0.0365
     63 H         4.230405   -0.873616   -4.944529 H        1 UNL1     0.0576
     64 H         4.31921   -3.844906   -5.75713 H        1 UNL1     0.0615
     65 H         4.66877   -1.189185   -7.364242 H        1 UNL1     0.0622
     66 H         0.387813   4.50922   -0.458678 H        1 UNL1     0.0645
     67 H         -1.09161   3.03754   -0.077012 H        1 UNL1     0.0362
     68 H         -0.345815   2.738081   1.965067 H        1 UNL1     0.0741
     69 H         1.017461   0.619263   2.788766 H        1 UNL1     0.0359
     70 H         2.897112   -0.087145   1.805196 H        1 UNL1     0.0600
     71 H         1.988623   -1.795091   0.824239 H        1 UNL1     0.0348
     72 H         3.250401   -0.956545   -1.082801 H        1 UNL1     0.0602
     73 H         0.994853   3.329978   -2.45012 H        1 UNL1     0.0628
     74 H         3.777447   3.54789   -1.157717 H        1 UNL1     0.1022
     75 H         5.126659   -4.724533   -9.379064 H        1 UNL1     0.0279
     76 H         3.452021   -4.491319   -9.686471 H        1 UNL1     0.0279
     77 H         4.729023   -3.741263   -10.726654 H        1 UNL1     0.0279
     78 H         2.405804   -2.093516   -10.119949 H        1 UNL1     0.1553
     79 H         1.648389   -2.660492   -8.378949 H        1 UNL1     0.1484
     80 H         -0.844987   -1.382129   -5.812169 H        1 UNL1     0.0317
     81 H         -0.495268   -0.52489   -7.306412 H        1 UNL1     0.0317
     82 H         -0.391646   -2.679878   -8.586643 H        1 UNL1     0.0428
     83 H         -1.919328   -2.454815   -7.763699 H        1 UNL1     0.0428
     84 H         0.899169   -5.023966   -5.877254 H        1 UNL1     0.0428
     85 H         1.375827   -4.341218   -7.392435 H        1 UNL1     0.0428
     86 H         2.25303   -3.242685   -5.331224 H        1 UNL1     0.0317
     87 H         0.6968   -2.861171   -4.75248 H        1 UNL1     0.0317
     88 H         -0.647263   -5.639386   -7.922378 H        1 UNL1     0.0429
     89 H         -1.811611   -5.599478   -6.596128 H        1 UNL1     0.0429
     90 H         -3.370087   -4.355303   -7.864678 H        1 UNL1     0.0308
     91 H         -1.956814   -2.379644   -8.341639 H        1 UNL1     0.0233
     92 H         -1.039705   -3.302185   -9.559557 H        1 UNL1     0.0233
     93 H         -2.7156   -2.88545   -9.846453 H        1 UNL1     0.0233
     94 H         -1.895011   -6.344405   -9.40991 H        1 UNL1     0.0233
     95 H         -3.63487   -6.116595   -9.174704 H        1 UNL1     0.0233
     96 H         -2.778951   -5.189167   -10.428207 H        1 UNL1     0.0233
     97 H         5.077931   5.812155   -8.337963 H        1 UNL1     0.0280
     98 H         3.374084   6.162663   -8.44398 H        1 UNL1     0.0280
     99 H         4.167106   6.09122   -6.842186 H        1 UNL1     0.0280
     100 H         3.736589   4.588446   -10.252534 H        1 UNL1     0.2922
     101 H         5.470002   -1.092769   -1.646274 H        1 UNL1     0.0236
     102 H         5.79625   -2.620166   -2.555494 H        1 UNL1     0.0236
     103 H         4.840288   -2.617619   -1.105796 H        1 UNL1     0.0236
     104 H         2.975183   -3.538941   -1.754749 H        1 UNL1     0.2098
     105 H         -0.075467   -1.457089   -0.93914 H        1 UNL1     0.0234
     106 H         -0.21104   -1.45007   0.842058 H        1 UNL1     0.0234
     107 H         -0.0   0.0   0.0 H        1 UNL1     0.0234
     108 H         3.562575   1.797448   0.909843 H        1 UNL1     0.2098
     109 H         -1.459111   1.224982   -1.392354 H        1 UNL1     0.0234
     110 H         -0.212364   2.132225   -2.306322 H        1 UNL1     0.0234
     111 H         0.217272   0.718594   -1.4086 H        1 UNL1     0.0234
     112 H         -2.613683   -1.533971   3.371208 H        1 UNL1     0.0342
     113 H         -2.95452   0.208031   3.667009 H        1 UNL1     0.0342
     114 H         -3.480015   -0.562918   2.167855 H        1 UNL1     0.0342
     115 H         1.892587   2.196493   3.917721 H        1 UNL1     0.0234
     116 H         2.921391   2.691606   2.569681 H        1 UNL1     0.0234
     117 H         1.3085   3.381385   2.84615 H        1 UNL1     0.0234
     118 H         0.884088   3.83405   -5.368609 H        1 UNL1     0.0309
     119 H         0.779816   3.929035   -3.583065 H        1 UNL1     0.0309
     120 H         1.341345   5.279146   -4.544337 H        1 UNL1     0.0309
     121 H         3.443574   4.936613   1.279435 H        1 UNL1     0.0524
     122 H         3.693183   4.306476   -0.353807 H        1 UNL1     0.0524
     123 H         2.491994   5.593266   -0.079841 H        1 UNL1     0.0524
@<TRIPOS>BOND
     1     1     2    1
     2     1    42    1
     3     2     3    2
     4     3     4    1
     5     4     5    2
     6     5     7    1
     7     6    75    1
     8     6    76    1
     9     6    77    1
    10     7     9   am
    11     9    10    1
    12    10    11    2
    13    10    43    1
    14    11    14    1
    15    11    15    1
    16    12    13   ar
    17    12    27   ar
    18    12    43    1
    19    13    14    1
    20    13    30   ar
    21    14    17    2
    22    15    16    1
    23    16    17    1
    24    16    18    1
    25    16    22    1
    26    18    19    1
    27    19    20    1
    28    20    21    1
    29    21    22    1
    30    23    24    1
    31    23    88    1
    32    23    89    1
    33    24    25    1
    34    24    26    1
    35    24    90    1
    36    25    91    1
    37    25    92    1
    38    25    93    1
    39    26    94    1
    40    26    95    1
    41    26    96    1
    42    27    28   ar
    43    28    29   ar
    44    29    30   ar
    45    29    31    1
    46    30    33    1
    47    31    32    1
    48    32    33    1
    49    32    35    1
    50    34    97    1
    51    34    98    1
    52    34    99    1
    53    35    61    1
    54    36    37    1
    55    36    60    1
    56    37    38    1
    57    38    39    1
    58    39    40    1
    59    40    41    1
    60    41    42    1
    61    45   100    1
    62    47   101    1
    63    47   102    1
    64    47   103    1
    65    48   104    1
    66    49   105    1
    67    49   106    1
    68    49   107    1
    69    50   108    1
    70    51    59    1
    71    52   109    1
    72    52   110    1
    73    52   111    1
    74    53    54    1
    75    54    55    2
    76    54    56    1
    77    56   112    1
    78    56   113    1
    79    56   114    1
    80    57   115    1
    81    57   116    1
    82    57   117    1
    83    58   118    1
    84    58   119    1
    85    58   120    1
    86    59   121    1
    87    59   122    1
    88    59   123    1
    89    60    61    2
    90     1    47    1
    91     1    62    1
    92     2    63    1
    93     3    64    1
    94     4    65    1
    95     5     6    1
    96     7     8    2
    97     9    78    1
    98    15    79    1
    99    18    80    1
   100    18    81    1
   101    19    82    1
   102    19    83    1
   103    20    23    1
   104    21    84    1
   105    21    85    1
   106    22    86    1
   107    22    87    1
   108    27    45    1
   109    28    34    1
   110    32    58    1
   111    33    46    2
   112    36    51    1
   113    36    66    1
   114    37    52    1
   115    37    67    1
   116    38    53    1
   117    38    68    1
   118    42    48    1
   119    42    72    1
   120    43    44    2
   121    60    73    1
   122    61    74    1
   123    39    69    1
   124    39    57    1
   125    40    70    1
   126    40    50    1
   127    41    71    1
   128    41    49    1
