@<TRIPOS>MOLECULE
*****
 123 128 0 0 0
SMALL
GASTEIGER

@<TRIPOS>ATOM
     1 C         5.312966   1.145013   0.50536 C.3        1 UNL1     0.0009
     2 C         6.878437   1.615714   -0.369156 C.2        1 UNL1     -0.0787
     3 C         8.141364   1.243717   -0.971384 C.2        1 UNL1     -0.0649
     4 C         9.222287   2.23425   -1.818029 C.2        1 UNL1     -0.0542
     5 C         10.295647   2.257316   -2.74239 C.2        1 UNL1     0.0115
     6 C         11.326059   1.370323   -3.493934 C.3        1 UNL1     -0.0348
     7 C         10.641794   3.63137   -3.496806 C.2        1 UNL1     0.2441
     8 O         11.579352   4.348726   -3.176005 O.2        1 UNL1     -0.2702
     9 N         9.959549   3.824924   -4.710573 N.am        1 UNL1     -0.2772
     10 C         8.74974   4.441616   -4.488368 C.2        1 UNL1     0.1049
     11 C         7.752346   3.654086   -4.128891 C.2        1 UNL1     0.0801
     12 C         7.698289   6.378102   -3.304389 C.ar        1 UNL1     0.0753
     13 C         6.757948   5.440311   -2.770616 C.ar        1 UNL1     0.0305
     14 C         6.676177   4.069827   -3.270755 C.2        1 UNL1     0.0924
     15 N         7.662222   2.313115   -4.143109 N.pl3        1 UNL1     -0.3170
     16 C         6.306006   1.960382   -3.816745 C.3        1 UNL1     0.1275
     17 N         5.811655   3.10574   -2.967336 N.2        1 UNL1     -0.2557
     18 C         5.500589   2.014849   -5.111364 C.3        1 UNL1     0.0016
     19 C         6.158717   1.100547   -6.132398 C.3        1 UNL1     0.0026
     20 N         6.19478   -0.252284   -5.594275 N.3        1 UNL1     -0.3018
     21 C         6.89606   -0.394694   -4.316662 C.3        1 UNL1     0.0026
     22 C         6.215583   0.528856   -3.304783 C.3        1 UNL1     0.0016
     23 C         6.524416   -1.248341   -6.594202 C.3        1 UNL1     0.0012
     24 C         5.364735   -1.417961   -7.588246 C.3        1 UNL1     -0.0339
     25 C         5.584715   -0.578566   -8.85753 C.3        1 UNL1     -0.0615
     26 C         5.171315   -2.888124   -7.916864 C.3        1 UNL1     -0.0615
     27 C         7.689589   7.713582   -2.90874 C.ar        1 UNL1     0.1347
     28 C         6.766654   8.234911   -2.019664 C.ar        1 UNL1     0.0342
     29 C         5.881716   7.283033   -1.470141 C.ar        1 UNL1     0.1435
     30 C         5.901971   5.934892   -1.829761 C.ar        1 UNL1     0.0774
     31 O         4.855007   7.65259   -0.673709 O.3        1 UNL1     -0.4436
     32 C         3.946998   6.541369   -0.713485 C.3        1 UNL1     0.3143
     33 C         4.797709   5.348272   -1.099523 C.2        1 UNL1     0.2504
     34 C         6.536961   9.694431   -1.741916 C.3        1 UNL1     -0.0327
     35 O         3.493071   6.314012   0.626482 O.2        1 UNL1     -0.4528
     36 C         -0.01021   4.887389   0.310481 C.3        1 UNL1     0.0854
     37 C         -0.496026   3.600363   -0.460927 C.3        1 UNL1     0.0236
     38 C         -1.308603   2.544151   0.431192 C.3        1 UNL1     0.1131
     39 C         -0.705507   2.050874   1.807863 C.3        1 UNL1     0.0200
     40 C         0.909195   1.64982   1.927588 C.3        1 UNL1     0.0661
     41 C         1.756244   0.615611   0.883305 C.3        1 UNL1     0.0091
     42 C         3.511413   0.639553   0.350189 C.3        1 UNL1     0.0661
     43 C         8.625678   5.901255   -4.360243 C.2        1 UNL1     0.2131
     44 O         9.18023   6.640619   -5.153055 O.2        1 UNL1     -0.2851
     45 O         8.667682   8.550671   -3.441706 O.3        1 UNL1     -0.5056
     46 O         4.616531   4.179013   -0.84289 O.2        1 UNL1     -0.2836
     47 C         5.604562   0.818383   1.994744 C.3        1 UNL1     -0.0566
     48 O         3.724577   -0.807181   0.596432 O.3        1 UNL1     -0.3909
     49 C         0.921663   0.383498   -0.35649 C.3        1 UNL1     -0.0577
     50 O         1.689673   2.793026   2.213347 O.3        1 UNL1     -0.3910
     51 O         -0.192449   4.873276   1.708344 O.3        1 UNL1     -0.3753
     52 C         0.532797   3.151469   -1.549488 C.3        1 UNL1     -0.0564
     53 O         -2.05195   1.521331   -0.377264 O.3        1 UNL1     -0.4608
     54 C         -2.50123   0.313267   0.088202 C.2        1 UNL1     0.3042
     55 O         -2.091757   -0.805164   -0.220477 O.2        1 UNL1     -0.2512
     56 C         -3.576594   0.43254   1.130354 C.3        1 UNL1     0.0332
     57 C         -1.335434   2.959547   2.963578 C.3        1 UNL1     -0.0567
     58 C         2.948432   6.833195   -1.857702 C.3        1 UNL1     0.0210
     59 C         -0.326746   6.16085   2.308328 C.3        1 UNL1     0.0372
     60 C         1.407425   5.269264   0.06626 C.2        1 UNL1     -0.0208
     61 C         2.360184   5.647196   0.919585 C.2        1 UNL1     0.0882
     62 H         5.000372   2.195633   0.470783 H        1 UNL1     0.0365
     63 H         6.783579   2.703473   -0.385079 H        1 UNL1     0.0576
     64 H         8.441537   0.198333   -1.072266 H        1 UNL1     0.0615
     65 H         8.882137   3.247572   -1.587897 H        1 UNL1     0.0622
     66 H         -0.617961   5.703771   -0.104496 H        1 UNL1     0.0645
     67 H         -1.287292   3.973896   -1.13393 H        1 UNL1     0.0362
     68 H         -2.179931   3.161184   0.698738 H        1 UNL1     0.0741
     69 H         -1.199869   1.132501   2.095274 H        1 UNL1     0.0359
     70 H         0.894438   1.080664   2.876747 H        1 UNL1     0.0600
     71 H         1.625506   -0.346609   1.416219 H        1 UNL1     0.0348
     72 H         3.465174   1.242688   1.26856 H        1 UNL1     0.0602
     73 H         1.577322   5.330649   -0.979978 H        1 UNL1     0.0628
     74 H         2.286436   5.560421   2.004144 H        1 UNL1     0.1022
     75 H         11.188379   0.295416   -3.22439 H        1 UNL1     0.0279
     76 H         11.249924   1.351403   -4.578791 H        1 UNL1     0.0279
     77 H         12.360056   1.546141   -3.162818 H        1 UNL1     0.0279
     78 H         9.768999   2.923551   -5.143349 H        1 UNL1     0.1553
     79 H         8.26251   1.720273   -4.686364 H        1 UNL1     0.1484
     80 H         4.468827   1.706392   -4.90379 H        1 UNL1     0.0317
     81 H         5.449986   3.038393   -5.49795 H        1 UNL1     0.0317
     82 H         7.167913   1.447562   -6.398888 H        1 UNL1     0.0428
     83 H         5.569499   1.155865   -7.048265 H        1 UNL1     0.0428
     84 H         6.83999   -1.403329   -3.895565 H        1 UNL1     0.0428
     85 H         7.973989   -0.207834   -4.418978 H        1 UNL1     0.0428
     86 H         6.665676   0.300953   -2.356381 H        1 UNL1     0.0317
     87 H         5.169493   0.228759   -3.167909 H        1 UNL1     0.0317
     88 H         7.408358   -0.900332   -7.144503 H        1 UNL1     0.0429
     89 H         6.791266   -2.20643   -6.12984 H        1 UNL1     0.0429
     90 H         4.432527   -1.092438   -7.111553 H        1 UNL1     0.0308
     91 H         6.528202   -0.83773   -9.347191 H        1 UNL1     0.0233
     92 H         4.76309   -0.722556   -9.563085 H        1 UNL1     0.0233
     93 H         5.621081   0.49694   -8.64587 H        1 UNL1     0.0233
     94 H         4.482419   -2.998949   -8.761243 H        1 UNL1     0.0233
     95 H         6.127521   -3.336451   -8.20083 H        1 UNL1     0.0233
     96 H         4.76343   -3.437413   -7.063705 H        1 UNL1     0.0233
     97 H         5.728625   9.852224   -1.034156 H        1 UNL1     0.0280
     98 H         7.420002   10.175916   -1.30184 H        1 UNL1     0.0280
     99 H         6.280694   10.21282   -2.68037 H        1 UNL1     0.0280
     100 H         8.334839   9.326432   -3.857679 H        1 UNL1     0.2922
     101 H         4.672679   0.584642   2.509153 H        1 UNL1     0.0236
     102 H         6.167149   1.600802   2.502974 H        1 UNL1     0.0236
     103 H         6.221229   -0.089024   2.106669 H        1 UNL1     0.0236
     104 H         4.099869   -0.901486   1.49378 H        1 UNL1     0.2098
     105 H         0.708663   1.282569   -0.929302 H        1 UNL1     0.0234
     106 H         1.290946   -0.404148   -1.013126 H        1 UNL1     0.0234
     107 H         0.0   -0.0   0.0 H        1 UNL1     0.0234
     108 H         1.615104   3.394098   1.44724 H        1 UNL1     0.2098
     109 H         1.517688   2.919667   -1.120573 H        1 UNL1     0.0234
     110 H         0.184234   2.302161   -2.14692 H        1 UNL1     0.0234
     111 H         0.709853   3.942932   -2.289882 H        1 UNL1     0.0234
     112 H         -3.883469   -0.563335   1.464132 H        1 UNL1     0.0342
     113 H         -3.264113   1.04787   1.972712 H        1 UNL1     0.0342
     114 H         -4.448588   0.916887   0.669703 H        1 UNL1     0.0342
     115 H         -2.431664   2.889259   2.986537 H        1 UNL1     0.0234
     116 H         -0.970088   2.721235   3.964467 H        1 UNL1     0.0234
     117 H         -1.194696   4.041597   2.798344 H        1 UNL1     0.0234
     118 H         2.129292   7.498684   -1.533449 H        1 UNL1     0.0309
     119 H         3.425503   7.259081   -2.746086 H        1 UNL1     0.0309
     120 H         2.423564   5.933556   -2.197217 H        1 UNL1     0.0309
     121 H         0.599702   6.706004   2.12984 H        1 UNL1     0.0524
     122 H         -1.147783   6.74661   1.862433 H        1 UNL1     0.0524
     123 H         -0.503598   6.061599   3.375552 H        1 UNL1     0.0524
@<TRIPOS>BOND
     1     1     2    1
     2     1    42    1
     3     2     3    2
     4     3     4    1
     5     4     5    2
     6     5     7    1
     7     6    75    1
     8     6    76    1
     9     6    77    1
    10     7     9   am
    11     9    10    1
    12    10    11    2
    13    10    43    1
    14    11    14    1
    15    11    15    1
    16    12    13   ar
    17    12    27   ar
    18    12    43    1
    19    13    14    1
    20    13    30   ar
    21    14    17    2
    22    15    16    1
    23    16    17    1
    24    16    18    1
    25    16    22    1
    26    18    19    1
    27    19    20    1
    28    20    21    1
    29    21    22    1
    30    23    24    1
    31    23    88    1
    32    23    89    1
    33    24    25    1
    34    24    26    1
    35    24    90    1
    36    25    91    1
    37    25    92    1
    38    25    93    1
    39    26    94    1
    40    26    95    1
    41    26    96    1
    42    27    28   ar
    43    28    29   ar
    44    29    30   ar
    45    29    31    1
    46    30    33    1
    47    31    32    1
    48    32    33    1
    49    32    35    1
    50    34    97    1
    51    34    98    1
    52    34    99    1
    53    35    61    1
    54    36    37    1
    55    36    60    1
    56    37    38    1
    57    38    39    1
    58    39    40    1
    59    40    41    1
    60    41    42    1
    61    45   100    1
    62    47   101    1
    63    47   102    1
    64    47   103    1
    65    48   104    1
    66    49   105    1
    67    49   106    1
    68    49   107    1
    69    50   108    1
    70    51    59    1
    71    52   109    1
    72    52   110    1
    73    52   111    1
    74    53    54    1
    75    54    55    2
    76    54    56    1
    77    56   112    1
    78    56   113    1
    79    56   114    1
    80    57   115    1
    81    57   116    1
    82    57   117    1
    83    58   118    1
    84    58   119    1
    85    58   120    1
    86    59   121    1
    87    59   122    1
    88    59   123    1
    89    60    61    2
    90     1    47    1
    91     1    62    1
    92     2    63    1
    93     3    64    1
    94     4    65    1
    95     5     6    1
    96     7     8    2
    97     9    78    1
    98    15    79    1
    99    18    80    1
   100    18    81    1
   101    19    82    1
   102    19    83    1
   103    20    23    1
   104    21    84    1
   105    21    85    1
   106    22    86    1
   107    22    87    1
   108    27    45    1
   109    28    34    1
   110    32    58    1
   111    33    46    2
   112    36    51    1
   113    36    66    1
   114    37    52    1
   115    37    67    1
   116    38    53    1
   117    38    68    1
   118    42    48    1
   119    42    72    1
   120    43    44    2
   121    60    73    1
   122    61    74    1
   123    39    69    1
   124    39    57    1
   125    40    70    1
   126    40    50    1
   127    41    71    1
   128    41    49    1
