@<TRIPOS>MOLECULE
*****
 123 128 0 0 0
SMALL
GASTEIGER

@<TRIPOS>ATOM
     1 C         3.068444   1.953682   -1.946562 C.3        1 UNL1     0.0009
     2 C         3.372826   3.780262   -2.035971 C.2        1 UNL1     -0.0787
     3 C         3.239237   5.043374   -2.730772 C.2        1 UNL1     -0.0649
     4 C         3.680228   6.583679   -2.183648 C.2        1 UNL1     -0.0542
     5 C         3.484343   7.976411   -2.353951 C.2        1 UNL1     0.0115
     6 C         2.845328   9.05219   -3.274649 C.3        1 UNL1     -0.0348
     7 C         3.924435   8.972744   -1.174702 C.2        1 UNL1     0.2441
     8 O         4.952733   9.634382   -1.211638 O.2        1 UNL1     -0.2702
     9 N         2.926171   9.232126   -0.219536 N.am        1 UNL1     -0.2772
     10 C         2.964556   8.290469   0.783026 C.2        1 UNL1     0.1049
     11 C         2.341355   7.152399   0.536778 C.2        1 UNL1     0.0801
     12 C         4.523834   7.13905   2.364235 C.ar        1 UNL1     0.0753
     13 C         3.95415   5.908431   1.906367 C.ar        1 UNL1     0.0305
     14 C         2.753319   5.884009   1.074225 C.2        1 UNL1     0.0924
     15 N         1.491421   6.829582   -0.453135 N.pl3        1 UNL1     -0.3170
     16 C         0.962037   5.522216   -0.168878 C.3        1 UNL1     0.1275
     17 N         2.038735   4.847452   0.645455 N.2        1 UNL1     -0.2557
     18 C         -0.225013   5.709617   0.771065 C.3        1 UNL1     0.0016
     19 C         -1.216369   6.660177   0.118961 C.3        1 UNL1     0.0026
     20 N         -1.640246   6.093164   -1.153774 N.3        1 UNL1     -0.3018
     21 C         -0.559465   5.819242   -2.103115 C.3        1 UNL1     0.0026
     22 C         0.422131   4.858992   -1.429109 C.3        1 UNL1     0.0016
     23 C         -2.797749   6.763294   -1.712126 C.3        1 UNL1     0.0012
     24 C         -2.532152   7.172812   -3.169353 C.3        1 UNL1     -0.0339
     25 C         -1.557602   6.20281   -3.857397 C.3        1 UNL1     -0.0615
     26 C         -3.843756   7.279081   -3.92776 C.3        1 UNL1     -0.0615
     27 C         5.595022   7.151387   3.254473 C.ar        1 UNL1     0.1347
     28 C         6.153177   6.002023   3.785014 C.ar        1 UNL1     0.0342
     29 C         5.608177   4.80141   3.282354 C.ar        1 UNL1     0.1435
     30 C         4.558988   4.773361   2.36277 C.ar        1 UNL1     0.0774
     31 O         5.969554   3.599657   3.782557 O.3        1 UNL1     -0.4436
     32 C         4.911618   2.711315   3.392052 C.3        1 UNL1     0.3143
     33 C         4.270165   3.3656   2.18513 C.2        1 UNL1     0.2504
     34 C         7.128434   5.941706   4.927527 C.3        1 UNL1     -0.0327
     35 O         5.521323   1.498132   2.934123 O.2        1 UNL1     -0.4528
     36 C         3.04206   -1.269606   3.709344 C.3        1 UNL1     0.0854
     37 C         1.541325   -1.420785   3.248408 C.3        1 UNL1     0.0236
     38 C         1.200082   -2.796373   2.498038 C.3        1 UNL1     0.1131
     39 C         2.09974   -3.27486   1.288105 C.3        1 UNL1     0.0200
     40 C         2.589853   -2.190543   0.119138 C.3        1 UNL1     0.0661
     41 C         1.586281   -1.104573   -0.7122 C.3        1 UNL1     0.0091
     42 C         1.935364   0.570559   -1.373621 C.3        1 UNL1     0.0661
     43 C         3.878622   8.402737   1.929427 C.2        1 UNL1     0.2131
     44 O         3.995198   9.457893   2.52591 O.2        1 UNL1     -0.2851
     45 O         6.120035   8.3907   3.614896 O.3        1 UNL1     -0.5056
     46 O         3.674249   2.840709   1.271222 O.2        1 UNL1     -0.2836
     47 C         4.021137   1.200266   -2.913371 C.3        1 UNL1     -0.0566
     48 O         1.324064   0.299617   -2.697259 O.3        1 UNL1     -0.3909
     49 C         0.253695   -1.029203   -0.000845 C.3        1 UNL1     -0.0577
     50 O         3.786185   -1.544317   0.505023 O.3        1 UNL1     -0.3910
     51 O         3.928679   -2.268517   3.258217 O.3        1 UNL1     -0.3753
     52 C         0.9309   -0.053926   2.796717 C.3        1 UNL1     -0.0564
     53 O         -0.271207   -3.070288   2.385769 O.3        1 UNL1     -0.4608
     54 C         -0.877132   -4.274015   2.634417 C.2        1 UNL1     0.3042
     55 O         -0.434093   -5.396684   2.395318 O.2        1 UNL1     -0.2512
     56 C         -2.203895   -4.147632   3.327555 C.3        1 UNL1     0.0332
     57 C         3.192313   -4.287467   1.870415 C.3        1 UNL1     -0.0567
     58 C         3.89357   2.705143   4.556127 C.3        1 UNL1     0.0210
     59 C         5.241672   -1.807003   2.943703 C.3        1 UNL1     0.0372
     60 C         3.670443   0.040149   3.385557 C.2        1 UNL1     -0.0208
     61 C         4.870177   0.320637   2.87496 C.2        1 UNL1     0.0882
     62 H         3.548987   1.941239   -0.960847 H        1 UNL1     0.0365
     63 H         3.975885   3.930356   -1.13805 H        1 UNL1     0.0576
     64 H         2.663031   5.130343   -3.654639 H        1 UNL1     0.0615
     65 H         4.310698   6.38062   -1.313729 H        1 UNL1     0.0622
     66 H         3.000322   -1.320763   4.80647 H        1 UNL1     0.0645
     67 H         0.981774   -1.541019   4.19234 H        1 UNL1     0.0362
     68 H         1.405836   -3.506609   3.313361 H        1 UNL1     0.0741
     69 H         1.549939   -4.009266   0.714716 H        1 UNL1     0.0359
     70 H         2.90011   -2.894924   -0.676253 H        1 UNL1     0.0600
     71 H         1.326075   -1.719623   -1.595921 H        1 UNL1     0.0348
     72 H         2.914482   0.090449   -1.231712 H        1 UNL1     0.0602
     73 H         3.050753   0.823387   3.745795 H        1 UNL1     0.0628
     74 H         5.53975   -0.417443   2.432076 H        1 UNL1     0.1022
     75 H         2.367566   9.856448   -2.664775 H        1 UNL1     0.0279
     76 H         3.52658   9.613523   -3.910156 H        1 UNL1     0.0279
     77 H         1.98406   8.669472   -3.841611 H        1 UNL1     0.0279
     78 H         2.009609   9.174985   -0.658541 H        1 UNL1     0.1553
     79 H         1.000502   7.506007   -1.008457 H        1 UNL1     0.1484
     80 H         -0.679994   4.732114   0.971681 H        1 UNL1     0.0317
     81 H         0.100573   6.108167   1.737917 H        1 UNL1     0.0317
     82 H         -0.788128   7.664056   -0.017965 H        1 UNL1     0.0428
     83 H         -2.053868   6.78116   0.806717 H        1 UNL1     0.0428
     84 H         -0.894995   5.320794   -3.017872 H        1 UNL1     0.0428
     85 H         -0.085963   6.74378   -2.461364 H        1 UNL1     0.0428
     86 H         1.122895   4.577769   -2.193198 H        1 UNL1     0.0317
     87 H         -0.082553   3.915483   -1.187901 H        1 UNL1     0.0317
     88 H         -3.640789   6.060245   -1.694781 H        1 UNL1     0.0429
     89 H         -3.088824   7.629546   -1.104133 H        1 UNL1     0.0429
     90 H         -2.094316   8.177919   -3.18589 H        1 UNL1     0.0308
     91 H         -0.529239   6.573694   -3.812476 H        1 UNL1     0.0233
     92 H         -1.603235   5.215069   -3.392753 H        1 UNL1     0.0233
     93 H         -1.795867   6.053379   -4.91746 H        1 UNL1     0.0233
     94 H         -3.654739   7.541743   -4.974239 H        1 UNL1     0.0233
     95 H         -4.36443   6.317543   -3.910284 H        1 UNL1     0.0233
     96 H         -4.495779   8.041535   -3.492445 H        1 UNL1     0.0233
     97 H         6.799743   5.262395   5.708379 H        1 UNL1     0.0280
     98 H         8.115377   5.580179   4.610515 H        1 UNL1     0.0280
     99 H         7.242904   6.945505   5.368411 H        1 UNL1     0.0280
     100 H         5.56827   8.899536   4.182579 H        1 UNL1     0.2922
     101 H         3.530323   0.302005   -3.287383 H        1 UNL1     0.0236
     102 H         4.993548   0.981874   -2.47325 H        1 UNL1     0.0236
     103 H         4.247726   1.791851   -3.816077 H        1 UNL1     0.0236
     104 H         0.795476   -0.518301   -2.616168 H        1 UNL1     0.2098
     105 H         -0.550106   -1.569603   -0.494486 H        1 UNL1     0.0234
     106 H         0.287415   -1.286409   1.057756 H        1 UNL1     0.0234
     107 H         0.0   0.0   0.0 H        1 UNL1     0.0234
     108 H         3.692924   -0.599787   0.274951 H        1 UNL1     0.2098
     109 H         1.700175   0.717116   2.650354 H        1 UNL1     0.0234
     110 H         0.316349   -0.134459   1.89362 H        1 UNL1     0.0234
     111 H         0.243552   0.351416   3.551169 H        1 UNL1     0.0234
     112 H         -2.269506   -3.178771   3.831885 H        1 UNL1     0.0342
     113 H         -3.038778   -4.289018   2.642847 H        1 UNL1     0.0342
     114 H         -2.26621   -4.931595   4.094812 H        1 UNL1     0.0342
     115 H         2.980031   -5.326597   1.583478 H        1 UNL1     0.0234
     116 H         4.214953   -4.063577   1.560367 H        1 UNL1     0.0234
     117 H         3.17913   -4.363454   2.971321 H        1 UNL1     0.0234
     118 H         3.13441   3.499383   4.447197 H        1 UNL1     0.0309
     119 H         3.388792   1.741826   4.680317 H        1 UNL1     0.0309
     120 H         4.358286   2.930738   5.522176 H        1 UNL1     0.0309
     121 H         5.506035   -2.20673   1.965088 H        1 UNL1     0.0524
     122 H         5.294181   -0.707451   2.878398 H        1 UNL1     0.0524
     123 H         5.950026   -2.149961   3.692508 H        1 UNL1     0.0524
@<TRIPOS>BOND
     1     1     2    1
     2     1    42    1
     3     2     3    2
     4     3     4    1
     5     4     5    2
     6     5     7    1
     7     6    75    1
     8     6    76    1
     9     6    77    1
    10     7     9   am
    11     9    10    1
    12    10    11    2
    13    10    43    1
    14    11    14    1
    15    11    15    1
    16    12    13   ar
    17    12    27   ar
    18    12    43    1
    19    13    14    1
    20    13    30   ar
    21    14    17    2
    22    15    16    1
    23    16    17    1
    24    16    18    1
    25    16    22    1
    26    18    19    1
    27    19    20    1
    28    20    21    1
    29    21    22    1
    30    23    24    1
    31    23    88    1
    32    23    89    1
    33    24    25    1
    34    24    26    1
    35    24    90    1
    36    25    91    1
    37    25    92    1
    38    25    93    1
    39    26    94    1
    40    26    95    1
    41    26    96    1
    42    27    28   ar
    43    28    29   ar
    44    29    30   ar
    45    29    31    1
    46    30    33    1
    47    31    32    1
    48    32    33    1
    49    32    35    1
    50    34    97    1
    51    34    98    1
    52    34    99    1
    53    35    61    1
    54    36    37    1
    55    36    60    1
    56    37    38    1
    57    38    39    1
    58    39    40    1
    59    40    41    1
    60    41    42    1
    61    45   100    1
    62    47   101    1
    63    47   102    1
    64    47   103    1
    65    48   104    1
    66    49   105    1
    67    49   106    1
    68    49   107    1
    69    50   108    1
    70    51    59    1
    71    52   109    1
    72    52   110    1
    73    52   111    1
    74    53    54    1
    75    54    55    2
    76    54    56    1
    77    56   112    1
    78    56   113    1
    79    56   114    1
    80    57   115    1
    81    57   116    1
    82    57   117    1
    83    58   118    1
    84    58   119    1
    85    58   120    1
    86    59   121    1
    87    59   122    1
    88    59   123    1
    89    60    61    2
    90     1    47    1
    91     1    62    1
    92     2    63    1
    93     3    64    1
    94     4    65    1
    95     5     6    1
    96     7     8    2
    97     9    78    1
    98    15    79    1
    99    18    80    1
   100    18    81    1
   101    19    82    1
   102    19    83    1
   103    20    23    1
   104    21    84    1
   105    21    85    1
   106    22    86    1
   107    22    87    1
   108    27    45    1
   109    28    34    1
   110    32    58    1
   111    33    46    2
   112    36    51    1
   113    36    66    1
   114    37    52    1
   115    37    67    1
   116    38    53    1
   117    38    68    1
   118    42    48    1
   119    42    72    1
   120    43    44    2
   121    60    73    1
   122    61    74    1
   123    39    69    1
   124    39    57    1
   125    40    70    1
   126    40    50    1
   127    41    71    1
   128    41    49    1
