@<TRIPOS>MOLECULE
*****
 123 128 0 0 0
SMALL
GASTEIGER

@<TRIPOS>ATOM
     1 C         3.960236   3.279228   1.890753 C.3        1 UNL1     0.0009
     2 C         5.192928   4.597641   1.467319 C.2        1 UNL1     -0.0787
     3 C         6.55342   4.998556   1.176848 C.2        1 UNL1     -0.0649
     4 C         7.108164   6.523177   0.692959 C.2        1 UNL1     -0.0542
     5 C         8.166119   7.229638   0.069483 C.2        1 UNL1     0.0115
     6 C         9.62242   7.104377   -0.456653 C.3        1 UNL1     -0.0348
     7 C         7.89093   8.711161   -0.484005 C.2        1 UNL1     0.2441
     8 O         8.251939   9.719854   0.106534 O.2        1 UNL1     -0.2702
     9 N         7.440941   8.768675   -1.814551 N.am        1 UNL1     -0.2772
     10 C         6.069169   8.672239   -1.862133 C.2        1 UNL1     0.1049
     11 C         5.569591   7.450595   -1.814915 C.2        1 UNL1     0.0801
     12 C         3.978851   9.607476   -0.855538 C.ar        1 UNL1     0.0753
     13 C         3.572252   8.252919   -0.635401 C.ar        1 UNL1     0.0305
     14 C         4.296701   7.130699   -1.227724 C.2        1 UNL1     0.0924
     15 N         6.183146   6.261083   -1.937948 N.pl3        1 UNL1     -0.3170
     16 C         5.165826   5.244631   -1.984204 C.3        1 UNL1     0.1275
     17 N         4.009287   5.832199   -1.212904 N.2        1 UNL1     -0.2557
     18 C         4.698442   5.13827   -3.432632 C.3        1 UNL1     0.0016
     19 C         5.905492   4.85896   -4.313885 C.3        1 UNL1     0.0026
     20 N         6.530126   3.619579   -3.872529 N.3        1 UNL1     -0.3018
     21 C         6.95824   3.603429   -2.472234 C.3        1 UNL1     0.0026
     22 C         5.729369   3.881537   -1.604808 C.3        1 UNL1     0.0016
     23 C         7.499469   3.107783   -4.820728 C.3        1 UNL1     0.0012
     24 C         6.794568   2.583658   -6.081745 C.3        1 UNL1     -0.0339
     25 C         7.531649   1.37195   -6.675489 C.3        1 UNL1     -0.0615
     26 C         5.344129   2.258068   -5.770303 C.3        1 UNL1     -0.0615
     27 C         3.215479   10.675068   -0.389029 C.ar        1 UNL1     0.1347
     28 C         2.011486   10.513963   0.273161 C.ar        1 UNL1     0.0342
     29 C         1.655725   9.171221   0.521442 C.ar        1 UNL1     0.1435
     30 C         2.428695   8.091799   0.091808 C.ar        1 UNL1     0.0774
     31 O         0.459267   8.84689   1.058383 O.3        1 UNL1     -0.4436
     32 C         0.273386   7.463901   0.721244 C.3        1 UNL1     0.3143
     33 C         1.668817   6.923084   0.483544 C.2        1 UNL1     0.2504
     34 C         1.020659   11.602574   0.578592 C.3        1 UNL1     -0.0327
     35 O         -0.235989   6.80583   1.887748 O.2        1 UNL1     -0.4528
     36 C         -2.38819   3.949871   0.615103 C.3        1 UNL1     0.0854
     37 C         -1.996041   2.753467   -0.334822 C.3        1 UNL1     0.0236
     38 C         -2.300235   1.293876   0.255777 C.3        1 UNL1     0.1131
     39 C         -1.792974   0.91174   1.704544 C.3        1 UNL1     0.0200
     40 C         -0.254244   1.32608   2.197564 C.3        1 UNL1     0.0661
     41 C         1.177015   1.039524   1.333276 C.3        1 UNL1     0.0091
     42 C         2.735303   2.004665   1.258149 C.3        1 UNL1     0.0661
     43 C         5.194274   9.83922   -1.674867 C.2        1 UNL1     0.2131
     44 O         5.425991   10.884734   -2.254474 O.2        1 UNL1     -0.2851
     45 O         3.705177   11.961452   -0.605475 O.3        1 UNL1     -0.5056
     46 O         2.068548   5.787331   0.610562 O.2        1 UNL1     -0.2836
     47 C         4.100129   2.868882   3.381399 C.3        1 UNL1     -0.0566
     48 O         3.609985   0.823549   1.455666 O.3        1 UNL1     -0.3909
     49 C         0.821871   0.663627   -0.088015 C.3        1 UNL1     -0.0577
     50 O         -0.236716   2.630066   2.742574 O.3        1 UNL1     -0.3910
     51 O         -2.789292   3.595088   1.919204 O.3        1 UNL1     -0.3753
     52 C         -0.703818   3.064091   -1.158607 C.3        1 UNL1     -0.0564
     53 O         -2.252748   0.206172   -0.777166 O.3        1 UNL1     -0.4608
     54 C         -2.147742   -1.134872   -0.515436 C.2        1 UNL1     0.3042
     55 O         -1.142734   -1.838129   -0.611495 O.2        1 UNL1     -0.2512
     56 C         -3.419907   -1.749384   -0.004862 C.3        1 UNL1     0.0332
     57 C         -2.998078   1.175305   2.722598 C.3        1 UNL1     -0.0567
     58 C         -0.505121   7.440178   -0.614755 C.3        1 UNL1     0.0210
     59 C         -3.670881   4.523772   2.548659 C.3        1 UNL1     0.0372
     60 C         -1.349247   5.005975   0.757949 C.2        1 UNL1     -0.0208
     61 C         -0.898973   5.634251   1.84481 C.2        1 UNL1     0.0882
     62 H         3.16625   4.034481   1.847265 H        1 UNL1     0.0365
     63 H         4.559269   5.486441   1.49864 H        1 UNL1     0.0576
     64 H         7.359047   4.266472   1.086701 H        1 UNL1     0.0615
     65 H         6.261788   7.184945   0.89592 H        1 UNL1     0.0622
     66 H         -3.24048   4.431284   0.115215 H        1 UNL1     0.0645
     67 H         -2.728475   2.813966   -1.158496 H        1 UNL1     0.0362
     68 H         -3.396369   1.352911   0.336565 H        1 UNL1     0.0741
     69 H         -1.790188   -0.165952   1.799311 H        1 UNL1     0.0359
     70 H         -0.14861   0.65851   3.074064 H        1 UNL1     0.0600
     71 H         1.4626   0.055122   1.753217 H        1 UNL1     0.0348
     72 H         2.219904   2.331609   2.172909 H        1 UNL1     0.0602
     73 H         -1.046945   5.33122   -0.206456 H        1 UNL1     0.0628
     74 H         -1.114575   5.326703   2.86861 H        1 UNL1     0.1022
     75 H         9.98008   6.049801   -0.373091 H        1 UNL1     0.0279
     76 H         9.777663   7.321538   -1.511077 H        1 UNL1     0.0279
     77 H         10.350485   7.631119   0.177512 H        1 UNL1     0.0279
     78 H         7.821589   7.983465   -2.338602 H        1 UNL1     0.1553
     79 H         7.089773   6.142132   -2.351242 H        1 UNL1     0.1484
     80 H         3.952474   4.338051   -3.509752 H        1 UNL1     0.0317
     81 H         4.202522   6.060974   -3.752525 H        1 UNL1     0.0317
     82 H         6.62354   5.692044   -4.296827 H        1 UNL1     0.0428
     83 H         5.54994   4.788711   -5.342329 H        1 UNL1     0.0428
     84 H         7.350689   2.6357   -2.144677 H        1 UNL1     0.0428
     85 H         7.785987   4.30261   -2.289757 H        1 UNL1     0.0428
     86 H         6.050573   3.730856   -0.59085 H        1 UNL1     0.0317
     87 H         4.980012   3.094442   -1.753273 H        1 UNL1     0.0317
     88 H         8.163728   3.932951   -5.109091 H        1 UNL1     0.0429
     89 H         8.129168   2.331389   -4.367444 H        1 UNL1     0.0429
     90 H         6.767714   3.379659   -6.835319 H        1 UNL1     0.0308
     91 H         7.797404   0.648426   -5.898965 H        1 UNL1     0.0233
     92 H         6.916293   0.877583   -7.430835 H        1 UNL1     0.0233
     93 H         8.464038   1.65566   -7.178475 H        1 UNL1     0.0233
     94 H         4.950408   1.54738   -6.504975 H        1 UNL1     0.0233
     95 H         5.268666   1.797213   -4.781425 H        1 UNL1     0.0233
     96 H         4.720496   3.156219   -5.789692 H        1 UNL1     0.0233
     97 H         0.047954   11.403308   0.138856 H        1 UNL1     0.0280
     98 H         0.846146   11.712703   1.656865 H        1 UNL1     0.0280
     99 H         1.390655   12.561045   0.179179 H        1 UNL1     0.0280
     100 H         3.451871   12.343685   -1.427276 H        1 UNL1     0.2922
     101 H         3.184064   2.382877   3.71648 H        1 UNL1     0.0236
     102 H         4.384036   3.697521   4.029271 H        1 UNL1     0.0236
     103 H         4.888821   2.112622   3.530491 H        1 UNL1     0.0236
     104 H         3.737525   0.708551   2.417684 H        1 UNL1     0.2098
     105 H         0.50955   1.49951   -0.708956 H        1 UNL1     0.0234
     106 H         1.576704   0.070752   -0.604401 H        1 UNL1     0.0234
     107 H         0.0   -0.0   0.0 H        1 UNL1     0.0234
     108 H         -0.315055   3.256863   1.997754 H        1 UNL1     0.2098
     109 H         0.160255   3.275097   -0.513188 H        1 UNL1     0.0234
     110 H         -0.445524   2.271578   -1.869205 H        1 UNL1     0.0234
     111 H         -0.829456   3.955271   -1.78786 H        1 UNL1     0.0234
     112 H         -3.596107   -2.707852   -0.502495 H        1 UNL1     0.0342
     113 H         -3.412304   -1.866807   1.077726 H        1 UNL1     0.0342
     114 H         -4.251762   -1.078928   -0.261127 H        1 UNL1     0.0342
     115 H         -3.921479   0.674296   2.400871 H        1 UNL1     0.0234
     116 H         -2.791743   0.857558   3.746567 H        1 UNL1     0.0234
     117 H         -3.326371   2.228526   2.75245 H        1 UNL1     0.0234
     118 H         -1.56493   7.165414   -0.472218 H        1 UNL1     0.0309
     119 H         -0.451014   8.38756   -1.160413 H        1 UNL1     0.0309
     120 H         -0.135495   6.67226   -1.303076 H        1 UNL1     0.0309
     121 H         -3.545462   4.419151   3.626008 H        1 UNL1     0.0524
     122 H         -3.434372   5.568541   2.286822 H        1 UNL1     0.0524
     123 H         -4.699477   4.314375   2.268952 H        1 UNL1     0.0524
@<TRIPOS>BOND
     1     1     2    1
     2     1    42    1
     3     2     3    2
     4     3     4    1
     5     4     5    2
     6     5     7    1
     7     6    75    1
     8     6    76    1
     9     6    77    1
    10     7     9   am
    11     9    10    1
    12    10    11    2
    13    10    43    1
    14    11    14    1
    15    11    15    1
    16    12    13   ar
    17    12    27   ar
    18    12    43    1
    19    13    14    1
    20    13    30   ar
    21    14    17    2
    22    15    16    1
    23    16    17    1
    24    16    18    1
    25    16    22    1
    26    18    19    1
    27    19    20    1
    28    20    21    1
    29    21    22    1
    30    23    24    1
    31    23    88    1
    32    23    89    1
    33    24    25    1
    34    24    26    1
    35    24    90    1
    36    25    91    1
    37    25    92    1
    38    25    93    1
    39    26    94    1
    40    26    95    1
    41    26    96    1
    42    27    28   ar
    43    28    29   ar
    44    29    30   ar
    45    29    31    1
    46    30    33    1
    47    31    32    1
    48    32    33    1
    49    32    35    1
    50    34    97    1
    51    34    98    1
    52    34    99    1
    53    35    61    1
    54    36    37    1
    55    36    60    1
    56    37    38    1
    57    38    39    1
    58    39    40    1
    59    40    41    1
    60    41    42    1
    61    45   100    1
    62    47   101    1
    63    47   102    1
    64    47   103    1
    65    48   104    1
    66    49   105    1
    67    49   106    1
    68    49   107    1
    69    50   108    1
    70    51    59    1
    71    52   109    1
    72    52   110    1
    73    52   111    1
    74    53    54    1
    75    54    55    2
    76    54    56    1
    77    56   112    1
    78    56   113    1
    79    56   114    1
    80    57   115    1
    81    57   116    1
    82    57   117    1
    83    58   118    1
    84    58   119    1
    85    58   120    1
    86    59   121    1
    87    59   122    1
    88    59   123    1
    89    60    61    2
    90     1    47    1
    91     1    62    1
    92     2    63    1
    93     3    64    1
    94     4    65    1
    95     5     6    1
    96     7     8    2
    97     9    78    1
    98    15    79    1
    99    18    80    1
   100    18    81    1
   101    19    82    1
   102    19    83    1
   103    20    23    1
   104    21    84    1
   105    21    85    1
   106    22    86    1
   107    22    87    1
   108    27    45    1
   109    28    34    1
   110    32    58    1
   111    33    46    2
   112    36    51    1
   113    36    66    1
   114    37    52    1
   115    37    67    1
   116    38    53    1
   117    38    68    1
   118    42    48    1
   119    42    72    1
   120    43    44    2
   121    60    73    1
   122    61    74    1
   123    39    69    1
   124    39    57    1
   125    40    70    1
   126    40    50    1
   127    41    71    1
   128    41    49    1
