@<TRIPOS>MOLECULE
*****
 123 128 0 0 0
SMALL
GASTEIGER

@<TRIPOS>ATOM
     1 C         5.147185   1.795548   0.540918 C.3        1 UNL1     0.0009
     2 C         6.57397   2.638404   -0.290296 C.2        1 UNL1     -0.0787
     3 C         7.860717   2.571882   -0.950526 C.2        1 UNL1     -0.0649
     4 C         8.720432   3.832635   -1.683839 C.2        1 UNL1     -0.0542
     5 C         9.739975   4.156221   -2.612765 C.2        1 UNL1     0.0115
     6 C         10.883223   3.562773   -3.481169 C.3        1 UNL1     -0.0348
     7 C         9.81265   5.64941   -3.197652 C.2        1 UNL1     0.2441
     8 O         10.620236   6.479686   -2.803986 O.2        1 UNL1     -0.2702
     9 N         9.064896   5.860083   -4.369246 N.am        1 UNL1     -0.2772
     10 C         7.774094   6.220038   -4.05686 C.2        1 UNL1     0.1049
     11 C         6.943813   5.230096   -3.783236 C.2        1 UNL1     0.0801
     12 C         6.440901   7.783726   -2.630393 C.ar        1 UNL1     0.0753
     13 C         5.699258   6.636598   -2.202991 C.ar        1 UNL1     0.0305
     14 C         5.842085   5.342457   -2.866204 C.2        1 UNL1     0.0924
     15 N         7.090266   3.90584   -3.960508 N.pl3        1 UNL1     -0.3170
     16 C         5.829412   3.280408   -3.661618 C.3        1 UNL1     0.1275
     17 N         5.171583   4.210424   -2.671641 N.2        1 UNL1     -0.2557
     18 C         4.982084   3.342777   -4.928838 C.3        1 UNL1     0.0016
     19 C         5.754426   2.688003   -6.063012 C.3        1 UNL1     0.0026
     20 N         6.046467   1.309404   -5.69531 N.3        1 UNL1     -0.3018
     21 C         6.806198   1.144539   -4.454345 C.3        1 UNL1     0.0026
     22 C         6.009923   1.805436   -3.327821 C.3        1 UNL1     0.0016
     23 C         6.510738   0.513589   -6.814138 C.3        1 UNL1     0.0012
     24 C         5.364786   0.258243   -7.805777 C.3        1 UNL1     -0.0339
     25 C         5.721277   0.753918   -9.216904 C.3        1 UNL1     -0.0615
     26 C         4.996079   -1.215131   -7.807384 C.3        1 UNL1     -0.0615
     27 C         6.211555   9.039865   -2.073945 C.ar        1 UNL1     0.1347
     28 C         5.243113   9.279081   -1.115328 C.ar        1 UNL1     0.0342
     29 C         4.559005   8.126229   -0.674768 C.ar        1 UNL1     0.1435
     30 C         4.803206   6.855527   -1.19717 C.ar        1 UNL1     0.0774
     31 O         3.51189   8.209609   0.174704 O.3        1 UNL1     -0.4436
     32 C         2.812429   6.966666   0.011241 C.3        1 UNL1     0.3143
     33 C         3.845479   5.998902   -0.529549 C.2        1 UNL1     0.2504
     34 C         4.770425   10.630837   -0.657702 C.3        1 UNL1     -0.0327
     35 O         2.452758   6.505064   1.319221 O.2        1 UNL1     -0.4528
     36 C         -0.754243   4.523025   0.877913 C.3        1 UNL1     0.0854
     37 C         -1.033096   3.27029   -0.038831 C.3        1 UNL1     0.0236
     38 C         -1.615674   1.987949   0.727947 C.3        1 UNL1     0.1131
     39 C         -0.887416   1.451111   2.025527 C.3        1 UNL1     0.0200
     40 C         0.775821   1.3337   2.073444 C.3        1 UNL1     0.0661
     41 C         1.754282   0.598304   0.898958 C.3        1 UNL1     0.0091
     42 C         3.458158   0.998302   0.349221 C.3        1 UNL1     0.0661
     43 C         7.400063   7.608473   -3.749121 C.2        1 UNL1     0.2131
     44 O         7.787944   8.523481   -4.452716 O.2        1 UNL1     -0.2851
     45 O         7.00806   10.095279   -2.513398 O.3        1 UNL1     -0.5056
     46 O         3.881673   4.79408   -0.415763 O.2        1 UNL1     -0.2836
     47 C         5.543653   1.352508   1.974971 C.3        1 UNL1     -0.0566
     48 O         3.930704   -0.40587   0.413376 O.3        1 UNL1     -0.3909
     49 C         0.930538   0.369055   -0.348594 C.3        1 UNL1     -0.0577
     50 O         1.352817   2.556017   2.48665 O.3        1 UNL1     -0.3910
     51 O         -0.882062   4.31141   2.26583 O.3        1 UNL1     -0.3753
     52 C         0.019802   3.14433   -1.187957 C.3        1 UNL1     -0.0564
     53 O         -2.195611   0.951655   -0.189709 O.3        1 UNL1     -0.4608
     54 C         -2.377643   -0.371095   0.118719 C.2        1 UNL1     0.3042
     55 O         -1.684909   -1.32334   -0.237913 O.2        1 UNL1     -0.2512
     56 C         -3.53529   -0.619227   1.043379 C.3        1 UNL1     0.0332
     57 C         -1.626305   2.089502   3.292284 C.3        1 UNL1     -0.0567
     58 C         1.738643   7.208592   -1.07503 C.3        1 UNL1     0.0210
     59 C         -1.219393   5.474159   3.020872 C.3        1 UNL1     0.0372
     60 C         0.564794   5.178185   0.663285 C.2        1 UNL1     -0.0208
     61 C         1.465638   5.616674   1.543599 C.2        1 UNL1     0.0882
     62 H         4.653837   2.770013   0.639596 H        1 UNL1     0.0365
     63 H         6.288962   3.685841   -0.171485 H        1 UNL1     0.0576
     64 H         8.336177   1.616328   -1.182821 H        1 UNL1     0.0615
     65 H         8.215805   4.734448   -1.326674 H        1 UNL1     0.0622
     66 H         -1.510147   5.260933   0.574355 H        1 UNL1     0.0645
     67 H         -1.900777   3.57335   -0.650259 H        1 UNL1     0.0362
     68 H         -2.571942   2.403351   1.080814 H        1 UNL1     0.0741
     69 H         -1.202342   0.431758   2.204826 H        1 UNL1     0.0359
     70 H         0.894574   0.662902   2.945791 H        1 UNL1     0.0600
     71 H         1.813404   -0.427939   1.311616 H        1 UNL1     0.0348
     72 H         3.338879   1.470592   1.335137 H        1 UNL1     0.0602
     73 H         0.684488   5.392196   -0.369731 H        1 UNL1     0.0628
     74 H         1.446342   5.39051   2.610236 H        1 UNL1     0.1022
     75 H         10.895334   2.44872   -3.405186 H        1 UNL1     0.0279
     76 H         10.810663   3.723598   -4.554454 H        1 UNL1     0.0279
     77 H         11.882938   3.816983   -3.09953 H        1 UNL1     0.0279
     78 H         9.020639   4.996762   -4.906643 H        1 UNL1     0.1553
     79 H         7.765967   3.498241   -4.580367 H        1 UNL1     0.1484
     80 H         4.02849   2.832604   -4.746771 H        1 UNL1     0.0317
     81 H         4.738908   4.379221   -5.186327 H        1 UNL1     0.0317
     82 H         6.676979   3.238773   -6.298515 H        1 UNL1     0.0428
     83 H         5.132924   2.74505   -6.957176 H        1 UNL1     0.0428
     84 H         6.943018   0.099519   -4.159344 H        1 UNL1     0.0428
     85 H         7.830267   1.531742   -4.547483 H        1 UNL1     0.0428
     86 H         6.526016   1.551109   -2.420653 H        1 UNL1     0.0317
     87 H         5.038287   1.309228   -3.214697 H        1 UNL1     0.0317
     88 H         7.299942   1.076507   -7.329478 H        1 UNL1     0.0429
     89 H         6.957887   -0.42948   -6.474353 H        1 UNL1     0.0429
     90 H         4.469138   0.790761   -7.464526 H        1 UNL1     0.0308
     91 H         6.728765   0.440069   -9.505987 H        1 UNL1     0.0233
     92 H         5.00428   0.378524   -9.9508 H        1 UNL1     0.0233
     93 H         5.694186   1.847563   -9.294631 H        1 UNL1     0.0233
     94 H         4.400011   -1.454346   -8.694692 H        1 UNL1     0.0233
     95 H         5.902083   -1.826983   -7.834895 H        1 UNL1     0.0233
     96 H         4.416466   -1.482404   -6.919362 H        1 UNL1     0.0233
     97 H         3.9201   10.559275   0.013907 H        1 UNL1     0.0280
     98 H         5.546352   11.174714   -0.103272 H        1 UNL1     0.0280
     99 H         4.470939   11.232371   -1.531521 H        1 UNL1     0.0280
     100 H         6.532177   10.869384   -2.758181 H        1 UNL1     0.2922
     101 H         4.660907   1.000263   2.508206 H        1 UNL1     0.0236
     102 H         6.076067   2.124052   2.530164 H        1 UNL1     0.0236
     103 H         6.229017   0.488561   1.966893 H        1 UNL1     0.0236
     104 H         4.260134   -0.565106   1.319517 H        1 UNL1     0.2098
     105 H         0.735774   1.26708   -0.92948 H        1 UNL1     0.0234
     106 H         1.296683   -0.427632   -0.996015 H        1 UNL1     0.0234
     107 H         0.0   -0.0   0.0 H        1 UNL1     0.0234
     108 H         1.200814   3.20463   1.772531 H        1 UNL1     0.2098
     109 H         1.045753   3.055581   -0.804214 H        1 UNL1     0.0234
     110 H         -0.188071   2.315506   -1.873218 H        1 UNL1     0.0234
     111 H         0.020319   4.031311   -1.835422 H        1 UNL1     0.0234
     112 H         -3.611939   -1.687988   1.265235 H        1 UNL1     0.0342
     113 H         -3.460723   -0.034489   1.959002 H        1 UNL1     0.0342
     114 H         -4.457001   -0.315219   0.528411 H        1 UNL1     0.0342
     115 H         -2.711651   1.921782   3.259389 H        1 UNL1     0.0234
     116 H         -1.265131   1.715067   4.252181 H        1 UNL1     0.0234
     117 H         -1.581724   3.191901   3.318169 H        1 UNL1     0.0234
     118 H         0.724204   7.283715   -0.645756 H        1 UNL1     0.0309
     119 H         1.936313   8.096182   -1.684385 H        1 UNL1     0.0309
     120 H         1.654584   6.371581   -1.776779 H        1 UNL1     0.0309
     121 H         -0.849672   5.327259   4.035309 H        1 UNL1     0.0524
     122 H         -0.742161   6.384859   2.622234 H        1 UNL1     0.0524
     123 H         -2.296344   5.616151   3.031313 H        1 UNL1     0.0524
@<TRIPOS>BOND
     1     1     2    1
     2     1    42    1
     3     2     3    2
     4     3     4    1
     5     4     5    2
     6     5     7    1
     7     6    75    1
     8     6    76    1
     9     6    77    1
    10     7     9   am
    11     9    10    1
    12    10    11    2
    13    10    43    1
    14    11    14    1
    15    11    15    1
    16    12    13   ar
    17    12    27   ar
    18    12    43    1
    19    13    14    1
    20    13    30   ar
    21    14    17    2
    22    15    16    1
    23    16    17    1
    24    16    18    1
    25    16    22    1
    26    18    19    1
    27    19    20    1
    28    20    21    1
    29    21    22    1
    30    23    24    1
    31    23    88    1
    32    23    89    1
    33    24    25    1
    34    24    26    1
    35    24    90    1
    36    25    91    1
    37    25    92    1
    38    25    93    1
    39    26    94    1
    40    26    95    1
    41    26    96    1
    42    27    28   ar
    43    28    29   ar
    44    29    30   ar
    45    29    31    1
    46    30    33    1
    47    31    32    1
    48    32    33    1
    49    32    35    1
    50    34    97    1
    51    34    98    1
    52    34    99    1
    53    35    61    1
    54    36    37    1
    55    36    60    1
    56    37    38    1
    57    38    39    1
    58    39    40    1
    59    40    41    1
    60    41    42    1
    61    45   100    1
    62    47   101    1
    63    47   102    1
    64    47   103    1
    65    48   104    1
    66    49   105    1
    67    49   106    1
    68    49   107    1
    69    50   108    1
    70    51    59    1
    71    52   109    1
    72    52   110    1
    73    52   111    1
    74    53    54    1
    75    54    55    2
    76    54    56    1
    77    56   112    1
    78    56   113    1
    79    56   114    1
    80    57   115    1
    81    57   116    1
    82    57   117    1
    83    58   118    1
    84    58   119    1
    85    58   120    1
    86    59   121    1
    87    59   122    1
    88    59   123    1
    89    60    61    2
    90     1    47    1
    91     1    62    1
    92     2    63    1
    93     3    64    1
    94     4    65    1
    95     5     6    1
    96     7     8    2
    97     9    78    1
    98    15    79    1
    99    18    80    1
   100    18    81    1
   101    19    82    1
   102    19    83    1
   103    20    23    1
   104    21    84    1
   105    21    85    1
   106    22    86    1
   107    22    87    1
   108    27    45    1
   109    28    34    1
   110    32    58    1
   111    33    46    2
   112    36    51    1
   113    36    66    1
   114    37    52    1
   115    37    67    1
   116    38    53    1
   117    38    68    1
   118    42    48    1
   119    42    72    1
   120    43    44    2
   121    60    73    1
   122    61    74    1
   123    39    69    1
   124    39    57    1
   125    40    70    1
   126    40    50    1
   127    41    71    1
   128    41    49    1
