@<TRIPOS>MOLECULE
*****
 123 128 0 0 0
SMALL
GASTEIGER

@<TRIPOS>ATOM
     1 C         0.763641   -0.383543   -4.046088 C.3        1 UNL1     0.0009
     2 C         0.164655   0.715354   -5.413815 C.2        1 UNL1     -0.0787
     3 C         -0.77083   0.993545   -6.483172 C.2        1 UNL1     -0.0649
     4 C         -0.88805   2.395767   -7.424655 C.2        1 UNL1     -0.0542
     5 C         -1.730498   3.160262   -8.268993 C.2        1 UNL1     0.0115
     6 C         -3.078686   3.150884   -9.040761 C.3        1 UNL1     -0.0348
     7 C         -1.364552   4.698813   -8.544552 C.2        1 UNL1     0.2441
     8 O         -0.839807   5.082697   -9.580795 O.2        1 UNL1     -0.2702
     9 N         -1.922036   5.609669   -7.630383 N.am        1 UNL1     -0.2772
     10 C         -1.088442   5.774837   -6.54818 C.2        1 UNL1     0.1049
     11 C         -1.182087   4.863491   -5.596917 C.2        1 UNL1     0.0801
     12 C         1.291784   6.231868   -5.929327 C.ar        1 UNL1     0.0753
     13 C         1.201463   5.098177   -5.060307 C.ar        1 UNL1     0.0305
     14 C         -0.07914   4.457932   -4.768422 C.2        1 UNL1     0.0924
     15 N         -2.106478   3.906795   -5.405187 N.pl3        1 UNL1     -0.3170
     16 C         -1.845606   3.292907   -4.130298 C.3        1 UNL1     0.1275
     17 N         -0.361838   3.47267   -3.920916 N.2        1 UNL1     -0.2557
     18 C         -2.529842   4.148129   -3.068168 C.3        1 UNL1     0.0016
     19 C         -4.004796   4.268676   -3.416834 C.3        1 UNL1     0.0026
     20 N         -4.584114   2.933443   -3.467547 N.3        1 UNL1     -0.3018
     21 C         -3.951115   2.016775   -4.418021 C.3        1 UNL1     0.0026
     22 C         -2.471365   1.906935   -4.046308 C.3        1 UNL1     0.0016
     23 C         -6.033139   2.948076   -3.49505 C.3        1 UNL1     0.0012
     24 C         -6.598165   1.720454   -2.763307 C.3        1 UNL1     -0.0339
     25 C         -8.087776   1.901766   -2.428282 C.3        1 UNL1     -0.0615
     26 C         -6.359054   0.467258   -3.587385 C.3        1 UNL1     -0.0615
     27 C         2.495034   6.910452   -6.107743 C.ar        1 UNL1     0.1347
     28 C         3.660864   6.574203   -5.443042 C.ar        1 UNL1     0.0342
     29 C         3.560036   5.425091   -4.630307 C.ar        1 UNL1     0.1435
     30 C         2.37033   4.713659   -4.470044 C.ar        1 UNL1     0.0774
     31 O         4.578146   5.034263   -3.832991 O.3        1 UNL1     -0.4436
     32 C         3.966233   4.177381   -2.857189 C.3        1 UNL1     0.3143
     33 C         2.693547   3.678169   -3.510848 C.2        1 UNL1     0.2504
     34 C         4.915395   7.400909   -5.390041 C.3        1 UNL1     -0.0327
     35 O         4.82325   3.041107   -2.690884 O.2        1 UNL1     -0.4528
     36 C         4.341821   1.890374   0.894102 C.3        1 UNL1     0.0854
     37 C         3.016934   1.457199   1.632044 C.3        1 UNL1     0.0236
     38 C         3.063871   0.003457   2.307449 C.3        1 UNL1     0.1131
     39 C         3.54115   -1.242221   1.457295 C.3        1 UNL1     0.0200
     40 C         3.008406   -1.449765   -0.109724 C.3        1 UNL1     0.0661
     41 C         1.394717   -1.379799   -0.628107 C.3        1 UNL1     0.0091
     42 C         0.679925   -0.817455   -2.221294 C.3        1 UNL1     0.0661
     43 C         0.041378   6.715884   -6.565307 C.2        1 UNL1     0.2131
     44 O         -0.104181   7.848719   -6.987484 O.2        1 UNL1     -0.2851
     45 O         2.507966   7.97546   -7.006091 O.3        1 UNL1     -0.5056
     46 O         2.093747   2.647289   -3.302567 O.2        1 UNL1     -0.2836
     47 C         1.499166   -1.619535   -4.630304 C.3        1 UNL1     -0.0566
     48 O         -0.202175   -1.999755   -2.373547 O.3        1 UNL1     -0.3909
     49 C         0.554753   -0.770118   0.472003 C.3        1 UNL1     -0.0577
     50 O         3.838151   -0.753261   -1.017539 O.3        1 UNL1     -0.3910
     51 O         5.330537   0.893473   0.767371 O.3        1 UNL1     -0.3753
     52 C         1.742407   1.994001   0.902404 C.3        1 UNL1     -0.0564
     53 O         1.95099   -0.241195   3.284162 O.3        1 UNL1     -0.4608
     54 C         1.054453   -1.275929   3.225194 C.2        1 UNL1     0.3042
     55 O         1.279593   -2.441753   2.902699 O.2        1 UNL1     -0.2512
     56 C         -0.33037   -0.897758   3.667873 C.3        1 UNL1     0.0332
     57 C         5.098876   -1.457281   1.74955 C.3        1 UNL1     -0.0567
     58 C         3.590744   5.078523   -1.657823 C.3        1 UNL1     0.0210
     59 C         5.010618   -0.350444   1.388812 C.3        1 UNL1     0.0372
     60 C         4.144908   2.474308   -0.460669 C.2        1 UNL1     -0.0208
     61 C         4.796197   2.248371   -1.602387 C.2        1 UNL1     0.0882
     62 H         1.536172   0.359288   -3.813476 H        1 UNL1     0.0365
     63 H         0.930564   1.493595   -5.399923 H        1 UNL1     0.0576
     64 H         -1.630223   0.347066   -6.674527 H        1 UNL1     0.0615
     65 H         0.046164   2.925791   -7.2202 H        1 UNL1     0.0622
     66 H         4.751293   2.69995   1.514558 H        1 UNL1     0.0645
     67 H         2.97902   2.110956   2.520708 H        1 UNL1     0.0362
     68 H         3.858455   0.171367   3.050393 H        1 UNL1     0.0741
     69 H         3.202273   -2.14666   1.944696 H        1 UNL1     0.0359
     70 H         3.267597   -2.515311   -0.259695 H        1 UNL1     0.0600
     71 H         1.118396   -2.449221   -0.54479 H        1 UNL1     0.0348
     72 H         1.740466   -1.02775   -2.422154 H        1 UNL1     0.0602
     73 H         3.433304   3.26009   -0.402237 H        1 UNL1     0.0628
     74 H         5.496463   1.427541   -1.760825 H        1 UNL1     0.1022
     75 H         -3.17228   4.063526   -9.677439 H        1 UNL1     0.0279
     76 H         -3.220134   2.347682   -9.760432 H        1 UNL1     0.0279
     77 H         -3.949235   3.259149   -8.377343 H        1 UNL1     0.0279
     78 H         -2.807199   5.246818   -7.282672 H        1 UNL1     0.1553
     79 H         -3.017317   3.920038   -5.826056 H        1 UNL1     0.1484
     80 H         -2.387275   3.680673   -2.086371 H        1 UNL1     0.0317
     81 H         -2.072558   5.14178   -3.011598 H        1 UNL1     0.0317
     82 H         -4.156319   4.802226   -4.366718 H        1 UNL1     0.0428
     83 H         -4.473127   4.883734   -2.647796 H        1 UNL1     0.0428
     84 H         -4.352116   0.999169   -4.379456 H        1 UNL1     0.0428
     85 H         -4.115585   2.329098   -5.45856 H        1 UNL1     0.0428
     86 H         -2.071863   1.132161   -4.674091 H        1 UNL1     0.0317
     87 H         -2.368586   1.493   -3.035768 H        1 UNL1     0.0317
     88 H         -6.375472   3.852717   -2.975697 H        1 UNL1     0.0429
     89 H         -6.411892   3.004981   -4.523681 H        1 UNL1     0.0429
     90 H         -6.045211   1.573863   -1.82791 H        1 UNL1     0.0308
     91 H         -8.484869   2.822212   -2.866687 H        1 UNL1     0.0233
     92 H         -8.671228   1.05167   -2.78957 H        1 UNL1     0.0233
     93 H         -8.268827   1.95997   -1.348158 H        1 UNL1     0.0233
     94 H         -6.650035   -0.421278   -3.01671 H        1 UNL1     0.0233
     95 H         -6.965183   0.49703   -4.497156 H        1 UNL1     0.0233
     96 H         -5.306547   0.368667   -3.867521 H        1 UNL1     0.0233
     97 H         5.146113   7.853286   -6.349913 H        1 UNL1     0.0280
     98 H         4.833287   8.232403   -4.677909 H        1 UNL1     0.0280
     99 H         5.765128   6.763637   -5.095196 H        1 UNL1     0.0280
     100 H         1.770432   8.004191   -7.589906 H        1 UNL1     0.2922
     101 H         2.445857   -1.76384   -4.110104 H        1 UNL1     0.0236
     102 H         1.629696   -1.569529   -5.710787 H        1 UNL1     0.0236
     103 H         0.939744   -2.554136   -4.457786 H        1 UNL1     0.0236
     104 H         -0.784453   -1.836428   -3.141171 H        1 UNL1     0.2098
     105 H         -0.152611   -1.456927   0.929979 H        1 UNL1     0.0234
     106 H         1.122116   -0.244448   1.239921 H        1 UNL1     0.0234
     107 H         0.0   0.0   0.0 H        1 UNL1     0.0234
     108 H         3.464558   0.142868   -1.123129 H        1 UNL1     0.2098
     109 H         1.779568   3.081117   0.745847 H        1 UNL1     0.0234
     110 H         1.549756   1.492703   -0.052231 H        1 UNL1     0.0234
     111 H         0.832398   1.809056   1.488601 H        1 UNL1     0.0234
     112 H         -0.440246   0.190891   3.657063 H        1 UNL1     0.0342
     113 H         -1.098766   -1.37405   3.060784 H        1 UNL1     0.0342
     114 H         -0.464885   -1.239556   4.703366 H        1 UNL1     0.0342
     115 H         5.725285   -1.056617   0.940681 H        1 UNL1     0.0234
     116 H         5.441525   -1.007688   2.68363 H        1 UNL1     0.0234
     117 H         5.404059   -2.517849   1.750006 H        1 UNL1     0.0234
     118 H         2.512739   5.316377   -1.639449 H        1 UNL1     0.0309
     119 H         3.879738   4.651252   -0.692357 H        1 UNL1     0.0309
     120 H         4.066063   6.064269   -1.707652 H        1 UNL1     0.0309
     121 H         5.61601   -1.12177   0.913508 H        1 UNL1     0.0524
     122 H         5.252149   -0.354922   2.464768 H        1 UNL1     0.0524
     123 H         3.954645   -0.572546   1.263574 H        1 UNL1     0.0524
@<TRIPOS>BOND
     1     1     2    1
     2     1    42    1
     3     2     3    2
     4     3     4    1
     5     4     5    2
     6     5     7    1
     7     6    75    1
     8     6    76    1
     9     6    77    1
    10     7     9   am
    11     9    10    1
    12    10    11    2
    13    10    43    1
    14    11    14    1
    15    11    15    1
    16    12    13   ar
    17    12    27   ar
    18    12    43    1
    19    13    14    1
    20    13    30   ar
    21    14    17    2
    22    15    16    1
    23    16    17    1
    24    16    18    1
    25    16    22    1
    26    18    19    1
    27    19    20    1
    28    20    21    1
    29    21    22    1
    30    23    24    1
    31    23    88    1
    32    23    89    1
    33    24    25    1
    34    24    26    1
    35    24    90    1
    36    25    91    1
    37    25    92    1
    38    25    93    1
    39    26    94    1
    40    26    95    1
    41    26    96    1
    42    27    28   ar
    43    28    29   ar
    44    29    30   ar
    45    29    31    1
    46    30    33    1
    47    31    32    1
    48    32    33    1
    49    32    35    1
    50    34    97    1
    51    34    98    1
    52    34    99    1
    53    35    61    1
    54    36    37    1
    55    36    60    1
    56    37    38    1
    57    38    39    1
    58    39    40    1
    59    40    41    1
    60    41    42    1
    61    45   100    1
    62    47   101    1
    63    47   102    1
    64    47   103    1
    65    48   104    1
    66    49   105    1
    67    49   106    1
    68    49   107    1
    69    50   108    1
    70    51    59    1
    71    52   109    1
    72    52   110    1
    73    52   111    1
    74    53    54    1
    75    54    55    2
    76    54    56    1
    77    56   112    1
    78    56   113    1
    79    56   114    1
    80    57   115    1
    81    57   116    1
    82    57   117    1
    83    58   118    1
    84    58   119    1
    85    58   120    1
    86    59   121    1
    87    59   122    1
    88    59   123    1
    89    60    61    2
    90     1    47    1
    91     1    62    1
    92     2    63    1
    93     3    64    1
    94     4    65    1
    95     5     6    1
    96     7     8    2
    97     9    78    1
    98    15    79    1
    99    18    80    1
   100    18    81    1
   101    19    82    1
   102    19    83    1
   103    20    23    1
   104    21    84    1
   105    21    85    1
   106    22    86    1
   107    22    87    1
   108    27    45    1
   109    28    34    1
   110    32    58    1
   111    33    46    2
   112    36    51    1
   113    36    66    1
   114    37    52    1
   115    37    67    1
   116    38    53    1
   117    38    68    1
   118    42    48    1
   119    42    72    1
   120    43    44    2
   121    60    73    1
   122    61    74    1
   123    39    69    1
   124    39    57    1
   125    40    70    1
   126    40    50    1
   127    41    71    1
   128    41    49    1
