@<TRIPOS>MOLECULE
*****
 123 128 0 0 0
SMALL
GASTEIGER

@<TRIPOS>ATOM
     1 C         -3.473396   -3.662632   0.587358 C.3        1 UNL1     0.0009
     2 C         -5.270948   -4.040197   0.335781 C.2        1 UNL1     -0.0787
     3 C         -6.644373   -3.970571   0.788441 C.2        1 UNL1     -0.0649
     4 C         -8.038487   -4.460291   -0.037983 C.2        1 UNL1     -0.0542
     5 C         -9.445889   -4.322727   -0.123848 C.2        1 UNL1     0.0115
     6 C         -10.698043   -3.745469   0.591837 C.3        1 UNL1     -0.0348
     7 C         -10.190081   -4.777212   -1.471665 C.2        1 UNL1     0.2441
     8 O         -10.803177   -5.831212   -1.570278 O.2        1 UNL1     -0.2702
     9 N         -10.312325   -3.770457   -2.445139 N.am        1 UNL1     -0.2772
     10 C         -9.20235   -3.751251   -3.258101 C.2        1 UNL1     0.1049
     11 C         -8.155971   -3.089088   -2.798915 C.2        1 UNL1     0.0801
     12 C         -7.716085   -5.231318   -4.621096 C.ar        1 UNL1     0.0753
     13 C         -6.615261   -4.623342   -3.937606 C.ar        1 UNL1     0.0305
     14 C         -6.794371   -3.439846   -3.099568 C.2        1 UNL1     0.0924
     15 N         -8.056012   -2.247685   -1.755566 N.pl3        1 UNL1     -0.3170
     16 C         -6.742306   -1.661697   -1.78794 C.3        1 UNL1     0.1275
     17 N         -5.884964   -2.694125   -2.478435 N.2        1 UNL1     -0.2557
     18 C         -6.804625   -0.46383   -2.730772 C.3        1 UNL1     0.0016
     19 C         -7.899556   0.475858   -2.251499 C.3        1 UNL1     0.0026
     20 N         -7.593464   0.895383   -0.890862 N.3        1 UNL1     -0.3018
     21 C         -7.452379   -0.193118   0.078483 C.3        1 UNL1     0.0026
     22 C         -6.344336   -1.122226   -0.420409 C.3        1 UNL1     0.0016
     23 C         -8.402832   2.013982   -0.450066 C.3        1 UNL1     0.0012
     24 C         -7.903553   3.322458   -1.082812 C.3        1 UNL1     -0.0339
     25 C         -8.448425   3.500972   -2.509453 C.3        1 UNL1     -0.0615
     26 C         -8.264154   4.500948   -0.19517 C.3        1 UNL1     -0.0615
     27 C         -7.519963   -6.283629   -5.512329 C.ar        1 UNL1     0.1347
     28 C         -6.270346   -6.785245   -5.82996 C.ar        1 UNL1     0.0342
     29 C         -5.206145   -6.204027   -5.108277 C.ar        1 UNL1     0.1435
     30 C         -5.391275   -5.173679   -4.185601 C.ar        1 UNL1     0.0774
     31 O         -3.918953   -6.507626   -5.383904 O.3        1 UNL1     -0.4436
     32 C         -3.162657   -5.423917   -4.823134 C.3        1 UNL1     0.3143
     33 C         -4.053296   -4.833578   -3.748669 C.2        1 UNL1     0.2504
     34 C         -5.960761   -7.733681   -6.95456 C.3        1 UNL1     -0.0327
     35 O         -2.029048   -5.994858   -4.158146 O.2        1 UNL1     -0.4528
     36 C         0.726344   -3.393527   -4.379463 C.3        1 UNL1     0.0854
     37 C         0.726965   -1.897814   -3.879097 C.3        1 UNL1     0.0236
     38 C         1.926325   -1.518386   -2.884454 C.3        1 UNL1     0.1131
     39 C         2.212983   -2.423277   -1.619042 C.3        1 UNL1     0.0200
     40 C         0.954808   -2.979481   -0.675606 C.3        1 UNL1     0.0661
     41 C         -0.306437   -2.036586   -0.044876 C.3        1 UNL1     0.0091
     42 C         -2.058011   -2.464631   0.293012 C.3        1 UNL1     0.0661
     43 C         -9.064157   -4.645245   -4.417425 C.2        1 UNL1     0.2131
     44 O         -9.986456   -4.790825   -5.199031 O.2        1 UNL1     -0.2851
     45 O         -8.649047   -6.849323   -6.101055 O.3        1 UNL1     -0.5056
     46 O         -3.730199   -4.236456   -2.746218 O.2        1 UNL1     -0.2836
     47 C         -2.869969   -4.604724   1.66361 C.3        1 UNL1     -0.0566
     48 O         -2.059968   -1.870527   1.651744 O.3        1 UNL1     -0.3909
     49 C         -0.306708   -0.693633   -0.740556 C.3        1 UNL1     -0.0577
     50 O         0.441331   -4.192048   -1.189168 O.3        1 UNL1     -0.3910
     51 O         1.662461   -4.249374   -3.764125 O.3        1 UNL1     -0.3753
     52 C         -0.724061   -1.35089   -3.678235 C.3        1 UNL1     -0.0564
     53 O         2.112543   -0.040105   -2.704633 O.3        1 UNL1     -0.4608
     54 C         2.334379   0.861742   -3.712299 C.2        1 UNL1     0.3042
     55 O         1.927156   0.801282   -4.871761 O.2        1 UNL1     -0.2512
     56 C         3.12239   2.065269   -3.279546 C.3        1 UNL1     0.0332
     57 C         3.36037   -3.463085   -2.019636 C.3        1 UNL1     -0.0567
     58 C         -2.986683   -4.382684   -5.952911 C.3        1 UNL1     0.0210
     59 C         1.15923   -4.986955   -2.651202 C.3        1 UNL1     0.0372
     60 C         -0.592752   -4.079324   -4.309964 C.2        1 UNL1     -0.0208
     61 C         -0.910895   -5.299383   -3.875241 C.2        1 UNL1     0.0882
     62 H         -3.260466   -4.121943   -0.385476 H        1 UNL1     0.0365
     63 H         -5.22854   -4.630084   -0.582209 H        1 UNL1     0.0576
     64 H         -6.923236   -3.417342   1.688042 H        1 UNL1     0.0615
     65 H         -7.653175   -5.064286   -0.863942 H        1 UNL1     0.0622
     66 H         0.975579   -3.327259   -5.447891 H        1 UNL1     0.0645
     67 H         0.994097   -1.314683   -4.777517 H        1 UNL1     0.0362
     68 H         2.781821   -1.679311   -3.558065 H        1 UNL1     0.0741
     69 H         2.806127   -1.857004   -0.913406 H        1 UNL1     0.0359
     70 H         1.514245   -3.278164   0.23152 H        1 UNL1     0.0600
     71 H         0.124948   -1.770686   0.940092 H        1 UNL1     0.0348
     72 H         -1.519033   -3.421039   0.228961 H        1 UNL1     0.0602
     73 H         -1.322365   -3.483553   -4.799831 H        1 UNL1     0.0628
     74 H         -0.238646   -5.948459   -3.313084 H        1 UNL1     0.1022
     75 H         -10.410869   -2.901746   1.264664 H        1 UNL1     0.0279
     76 H         -11.454003   -3.290803   -0.04446 H        1 UNL1     0.0279
     77 H         -11.142202   -4.452297   1.30795 H        1 UNL1     0.0279
     78 H         -10.375328   -2.861582   -1.991208 H        1 UNL1     0.1553
     79 H         -8.842793   -1.795201   -1.327587 H        1 UNL1     0.1484
     80 H         -5.827067   0.03317   -2.742491 H        1 UNL1     0.0317
     81 H         -7.005385   -0.784844   -3.758535 H        1 UNL1     0.0317
     82 H         -8.892499   0.005847   -2.306877 H        1 UNL1     0.0428
     83 H         -7.92799   1.321935   -2.93881 H        1 UNL1     0.0428
     84 H         -7.144388   0.142819   1.07352 H        1 UNL1     0.0428
     85 H         -8.405975   -0.709786   0.254627 H        1 UNL1     0.0428
     86 H         -6.17827   -1.826987   0.373141 H        1 UNL1     0.0317
     87 H         -5.394844   -0.57607   -0.477624 H        1 UNL1     0.0317
     88 H         -9.435607   1.838705   -0.778623 H        1 UNL1     0.0429
     89 H         -8.421501   2.0856   0.645058 H        1 UNL1     0.0429
     90 H         -6.808131   3.304945   -1.127047 H        1 UNL1     0.0308
     91 H         -8.397471   4.546853   -2.826691 H        1 UNL1     0.0233
     92 H         -7.889031   2.884042   -3.216619 H        1 UNL1     0.0233
     93 H         -9.497204   3.192541   -2.59758 H        1 UNL1     0.0233
     94 H         -8.585598   4.147057   0.79036 H        1 UNL1     0.0233
     95 H         -7.390593   5.143578   -0.054173 H        1 UNL1     0.0233
     96 H         -9.072966   5.095049   -0.629723 H        1 UNL1     0.0233
     97 H         -6.855442   -8.21123   -7.342792 H        1 UNL1     0.0280
     98 H         -5.496795   -7.224556   -7.809419 H        1 UNL1     0.0280
     99 H         -5.276926   -8.520442   -6.596131 H        1 UNL1     0.0280
     100 H         -8.469464   -7.400923   -6.842074 H        1 UNL1     0.2922
     101 H         -1.782845   -4.529661   1.650121 H        1 UNL1     0.0236
     102 H         -3.209942   -5.635582   1.570157 H        1 UNL1     0.0236
     103 H         -3.158526   -4.305157   2.684976 H        1 UNL1     0.0236
     104 H         -2.290882   -0.92541   1.560077 H        1 UNL1     0.2098
     105 H         0.387489   -0.619372   -1.573855 H        1 UNL1     0.0234
     106 H         -1.292193   -0.334393   -1.036687 H        1 UNL1     0.0234
     107 H         0.0   0.0   0.0 H        1 UNL1     0.0234
     108 H         0.695225   -4.901056   -0.567385 H        1 UNL1     0.2098
     109 H         -1.229517   -1.817413   -2.821158 H        1 UNL1     0.0234
     110 H         -0.763099   -0.260878   -3.577765 H        1 UNL1     0.0234
     111 H         -1.359851   -1.560931   -4.548637 H        1 UNL1     0.0234
     112 H         3.316496   2.015896   -2.203799 H        1 UNL1     0.0342
     113 H         4.050384   2.170227   -3.839595 H        1 UNL1     0.0342
     114 H         2.514769   2.960343   -3.471391 H        1 UNL1     0.0342
     115 H         3.202228   -4.445375   -1.553496 H        1 UNL1     0.0234
     116 H         3.459501   -3.622185   -3.095233 H        1 UNL1     0.0234
     117 H         4.354529   -3.196005   -1.621821 H        1 UNL1     0.0234
     118 H         -2.390117   -3.513052   -5.626022 H        1 UNL1     0.0309
     119 H         -2.539581   -4.803453   -6.859143 H        1 UNL1     0.0309
     120 H         -3.936945   -3.934725   -6.263458 H        1 UNL1     0.0309
     121 H         1.770154   -4.734486   -1.784952 H        1 UNL1     0.0524
     122 H         0.116283   -4.721628   -2.410574 H        1 UNL1     0.0524
     123 H         1.214647   -6.053306   -2.850998 H        1 UNL1     0.0524
@<TRIPOS>BOND
     1     1     2    1
     2     1    42    1
     3     2     3    2
     4     3     4    1
     5     4     5    2
     6     5     7    1
     7     6    75    1
     8     6    76    1
     9     6    77    1
    10     7     9   am
    11     9    10    1
    12    10    11    2
    13    10    43    1
    14    11    14    1
    15    11    15    1
    16    12    13   ar
    17    12    27   ar
    18    12    43    1
    19    13    14    1
    20    13    30   ar
    21    14    17    2
    22    15    16    1
    23    16    17    1
    24    16    18    1
    25    16    22    1
    26    18    19    1
    27    19    20    1
    28    20    21    1
    29    21    22    1
    30    23    24    1
    31    23    88    1
    32    23    89    1
    33    24    25    1
    34    24    26    1
    35    24    90    1
    36    25    91    1
    37    25    92    1
    38    25    93    1
    39    26    94    1
    40    26    95    1
    41    26    96    1
    42    27    28   ar
    43    28    29   ar
    44    29    30   ar
    45    29    31    1
    46    30    33    1
    47    31    32    1
    48    32    33    1
    49    32    35    1
    50    34    97    1
    51    34    98    1
    52    34    99    1
    53    35    61    1
    54    36    37    1
    55    36    60    1
    56    37    38    1
    57    38    39    1
    58    39    40    1
    59    40    41    1
    60    41    42    1
    61    45   100    1
    62    47   101    1
    63    47   102    1
    64    47   103    1
    65    48   104    1
    66    49   105    1
    67    49   106    1
    68    49   107    1
    69    50   108    1
    70    51    59    1
    71    52   109    1
    72    52   110    1
    73    52   111    1
    74    53    54    1
    75    54    55    2
    76    54    56    1
    77    56   112    1
    78    56   113    1
    79    56   114    1
    80    57   115    1
    81    57   116    1
    82    57   117    1
    83    58   118    1
    84    58   119    1
    85    58   120    1
    86    59   121    1
    87    59   122    1
    88    59   123    1
    89    60    61    2
    90     1    47    1
    91     1    62    1
    92     2    63    1
    93     3    64    1
    94     4    65    1
    95     5     6    1
    96     7     8    2
    97     9    78    1
    98    15    79    1
    99    18    80    1
   100    18    81    1
   101    19    82    1
   102    19    83    1
   103    20    23    1
   104    21    84    1
   105    21    85    1
   106    22    86    1
   107    22    87    1
   108    27    45    1
   109    28    34    1
   110    32    58    1
   111    33    46    2
   112    36    51    1
   113    36    66    1
   114    37    52    1
   115    37    67    1
   116    38    53    1
   117    38    68    1
   118    42    48    1
   119    42    72    1
   120    43    44    2
   121    60    73    1
   122    61    74    1
   123    39    69    1
   124    39    57    1
   125    40    70    1
   126    40    50    1
   127    41    71    1
   128    41    49    1
