@<TRIPOS>MOLECULE
*****
 123 128 0 0 0
SMALL
GASTEIGER

@<TRIPOS>ATOM
     1 C         5.158587   1.76398   0.525953 C.3        1 UNL1     0.0009
     2 C         6.597943   2.576003   -0.314232 C.2        1 UNL1     -0.0787
     3 C         7.884178   2.482939   -0.972248 C.2        1 UNL1     -0.0649
     4 C         8.762389   3.722075   -1.72034 C.2        1 UNL1     -0.0542
     5 C         9.787233   4.019496   -2.652174 C.2        1 UNL1     0.0115
     6 C         10.922659   3.399043   -3.511923 C.3        1 UNL1     -0.0348
     7 C         9.881667   5.504079   -3.255566 C.2        1 UNL1     0.2441
     8 O         10.700656   6.327632   -2.871452 O.2        1 UNL1     -0.2702
     9 N         9.137994   5.710724   -4.430471 N.am        1 UNL1     -0.2772
     10 C         7.852182   6.092882   -4.123936 C.2        1 UNL1     0.1049
     11 C         7.007653   5.118349   -3.838845 C.2        1 UNL1     0.0801
     12 C         6.540168   7.693073   -2.718468 C.ar        1 UNL1     0.0753
     13 C         5.781899   6.562041   -2.277557 C.ar        1 UNL1     0.0305
     14 C         5.90685   5.257818   -2.924427 C.2        1 UNL1     0.0924
     15 N         7.135385   3.790032   -3.999432 N.pl3        1 UNL1     -0.3170
     16 C         5.865496   3.186385   -3.694069 C.3        1 UNL1     0.1275
     17 N         5.220129   4.137958   -2.716452 N.2        1 UNL1     -0.2557
     18 C         5.02023   3.244975   -4.962846 C.3        1 UNL1     0.0016
     19 C         5.784142   2.565165   -6.087962 C.3        1 UNL1     0.0026
     20 N         6.056205   1.187249   -5.70279 N.3        1 UNL1     -0.3018
     21 C         6.812447   1.027101   -4.459078 C.3        1 UNL1     0.0026
     22 C         6.024697   1.713277   -3.341712 C.3        1 UNL1     0.0016
     23 C         6.510056   0.370999   -6.811122 C.3        1 UNL1     0.0012
     24 C         5.360321   0.115976   -7.798456 C.3        1 UNL1     -0.0339
     25 C         5.385524   1.120171   -8.962507 C.3        1 UNL1     -0.0615
     26 C         5.409732   -1.318113   -8.296177 C.3        1 UNL1     -0.0615
     27 C         6.328257   8.959199   -2.17797 C.ar        1 UNL1     0.1347
     28 C         5.362497   9.224123   -1.223416 C.ar        1 UNL1     0.0342
     29 C         4.661664   8.086714   -0.769218 C.ar        1 UNL1     0.1435
     30 C         4.888193   6.806241   -1.275474 C.ar        1 UNL1     0.0774
     31 O         3.615113   8.195587   0.078063 O.3        1 UNL1     -0.4436
     32 C         2.898164   6.960778   -0.070606 C.3        1 UNL1     0.3143
     33 C         3.91779   5.971735   -0.598212 C.2        1 UNL1     0.2504
     34 C         4.908715   10.588077   -0.783177 C.3        1 UNL1     -0.0327
     35 O         2.530833   6.52071   1.242657 O.2        1 UNL1     -0.4528
     36 C         -0.703689   4.579147   0.822786 C.3        1 UNL1     0.0854
     37 C         -0.999566   3.319156   -0.078547 C.3        1 UNL1     0.0236
     38 C         -1.601005   2.05491   0.703564 C.3        1 UNL1     0.1131
     39 C         -0.881578   1.52401   2.008493 C.3        1 UNL1     0.0200
     40 C         0.779776   1.383552   2.059594 C.3        1 UNL1     0.0661
     41 C         1.748672   0.619699   0.895386 C.3        1 UNL1     0.0091
     42 C         3.458543   0.988516   0.342468 C.3        1 UNL1     0.0661
     43 C         7.497697   7.490233   -3.833929 C.2        1 UNL1     0.2131
     44 O         7.899172   8.390772   -4.548482 O.2        1 UNL1     -0.2851
     45 O         7.140088   9.997602   -2.62973 O.3        1 UNL1     -0.5056
     46 O         3.936726   4.768034   -0.469368 O.2        1 UNL1     -0.2836
     47 C         5.547475   1.333286   1.965832 C.3        1 UNL1     -0.0566
     48 O         3.910989   -0.421328   0.424623 O.3        1 UNL1     -0.3909
     49 C         0.922818   0.386633   -0.350061 C.3        1 UNL1     -0.0577
     50 O         1.373765   2.6026   2.458117 O.3        1 UNL1     -0.3910
     51 O         -0.835698   4.386721   2.213102 O.3        1 UNL1     -0.3753
     52 C         0.052417   3.163887   -1.224921 C.3        1 UNL1     -0.0564
     53 O         -2.194853   1.015594   -0.201694 O.3        1 UNL1     -0.4608
     54 C         -2.415128   -0.295648   0.130048 C.2        1 UNL1     0.3042
     55 O         -1.837206   -1.2861   -0.315877 O.2        1 UNL1     -0.2512
     56 C         -3.450437   -0.478777   1.20304 C.3        1 UNL1     0.0332
     57 C         -1.612388   2.188619   3.266422 C.3        1 UNL1     -0.0567
     58 C         1.828864   7.204374   -1.160922 C.3        1 UNL1     0.0210
     59 C         -1.187964   5.557034   2.949405 C.3        1 UNL1     0.0372
     60 C         0.624729   5.212741   0.601368 C.2        1 UNL1     -0.0208
     61 C         1.53097   5.649326   1.477076 C.2        1 UNL1     0.0882
     62 H         4.679082   2.746522   0.611958 H        1 UNL1     0.0365
     63 H         6.327779   3.628791   -0.208791 H        1 UNL1     0.0576
     64 H         8.346181   1.517889   -1.192111 H        1 UNL1     0.0615
     65 H         8.270349   4.635367   -1.374975 H        1 UNL1     0.0622
     66 H         -1.448747   5.323887   0.509264 H        1 UNL1     0.0645
     67 H         -1.862318   3.626872   -0.694607 H        1 UNL1     0.0362
     68 H         -2.551562   2.488251   1.050231 H        1 UNL1     0.0741
     69 H         -1.211143   0.511559   2.200167 H        1 UNL1     0.0359
     70 H         0.888215   0.722078   2.940363 H        1 UNL1     0.0600
     71 H         1.79282   -0.402048   1.320875 H        1 UNL1     0.0348
     72 H         3.345156   1.47473   1.322291 H        1 UNL1     0.0602
     73 H         0.748345   5.41211   -0.434112 H        1 UNL1     0.0628
     74 H         1.50754   5.436797   2.546431 H        1 UNL1     0.1022
     75 H         10.969641   2.29365   -3.360487 H        1 UNL1     0.0279
     76 H         10.815364   3.483305   -4.591023 H        1 UNL1     0.0279
     77 H         11.924766   3.706308   -3.178651 H        1 UNL1     0.0279
     78 H         9.081909   4.841476   -4.957103 H        1 UNL1     0.1553
     79 H         7.805744   3.365151   -4.613458 H        1 UNL1     0.1484
     80 H         4.059311   2.750736   -4.775416 H        1 UNL1     0.0317
     81 H         4.792059   4.281477   -5.233496 H        1 UNL1     0.0317
     82 H         6.714646   3.099768   -6.329362 H        1 UNL1     0.0428
     83 H         5.164283   2.619879   -6.983413 H        1 UNL1     0.0428
     84 H         6.934118   -0.015994   -4.150923 H        1 UNL1     0.0428
     85 H         7.842005   1.3985   -4.555979 H        1 UNL1     0.0428
     86 H         6.536338   1.462981   -2.430908 H        1 UNL1     0.0317
     87 H         5.045996   1.232396   -3.223414 H        1 UNL1     0.0317
     88 H         7.305455   0.917517   -7.334527 H        1 UNL1     0.0429
     89 H         6.946261   -0.572662   -6.458981 H        1 UNL1     0.0429
     90 H         4.404571   0.217095   -7.270697 H        1 UNL1     0.0308
     91 H         6.337042   1.080839   -9.50118 H        1 UNL1     0.0233
     92 H         4.569368   0.922117   -9.661273 H        1 UNL1     0.0233
     93 H         5.254043   2.1551   -8.624173 H        1 UNL1     0.0233
     94 H         4.717836   -1.450867   -9.134922 H        1 UNL1     0.0233
     95 H         6.416975   -1.556646   -8.649057 H        1 UNL1     0.0233
     96 H         5.135743   -2.024022   -7.507132 H        1 UNL1     0.0233
     97 H         4.111028   10.53459   -0.048286 H        1 UNL1     0.0280
     98 H         5.716809   11.159846   -0.308498 H        1 UNL1     0.0280
     99 H         4.538604   11.152916   -1.654424 H        1 UNL1     0.0280
     100 H         6.672704   10.747044   -2.954557 H        1 UNL1     0.2922
     101 H         4.682945   0.896122   2.464962 H        1 UNL1     0.0236
     102 H         5.992202   2.139048   2.548884 H        1 UNL1     0.0236
     103 H         6.306211   0.532968   1.968019 H        1 UNL1     0.0236
     104 H         4.325568   -0.547487   1.300511 H        1 UNL1     0.2098
     105 H         0.710881   1.285765   -0.923171 H        1 UNL1     0.0234
     106 H         1.298658   -0.399133   -1.005227 H        1 UNL1     0.0234
     107 H         0.0   -0.0   0.0 H        1 UNL1     0.0234
     108 H         1.175005   3.262123   1.765807 H        1 UNL1     0.2098
     109 H         1.075258   3.052952   -0.838657 H        1 UNL1     0.0234
     110 H         -0.173295   2.337215   -1.907132 H        1 UNL1     0.0234
     111 H         0.074848   4.04786   -1.876101 H        1 UNL1     0.0234
     112 H         -3.573839   -1.543487   1.423293 H        1 UNL1     0.0342
     113 H         -3.208865   0.081372   2.105104 H        1 UNL1     0.0342
     114 H         -4.40924   -0.100179   0.822877 H        1 UNL1     0.0342
     115 H         -2.676006   1.916804   3.311384 H        1 UNL1     0.0234
     116 H         -1.165906   1.927863   4.22804 H        1 UNL1     0.0234
     117 H         -1.675912   3.288821   3.207582 H        1 UNL1     0.0234
     118 H         0.923777   7.687786   -0.753325 H        1 UNL1     0.0309
     119 H         2.201563   7.794923   -2.003863 H        1 UNL1     0.0309
     120 H         1.4458   6.271929   -1.589776 H        1 UNL1     0.0309
     121 H         -0.38665   6.283481   2.817016 H        1 UNL1     0.0524
     122 H         -2.118981   6.018856   2.580672 H        1 UNL1     0.0524
     123 H         -1.306311   5.317217   4.002294 H        1 UNL1     0.0524
@<TRIPOS>BOND
     1     1     2    1
     2     1    42    1
     3     2     3    2
     4     3     4    1
     5     4     5    2
     6     5     7    1
     7     6    75    1
     8     6    76    1
     9     6    77    1
    10     7     9   am
    11     9    10    1
    12    10    11    2
    13    10    43    1
    14    11    14    1
    15    11    15    1
    16    12    13   ar
    17    12    27   ar
    18    12    43    1
    19    13    14    1
    20    13    30   ar
    21    14    17    2
    22    15    16    1
    23    16    17    1
    24    16    18    1
    25    16    22    1
    26    18    19    1
    27    19    20    1
    28    20    21    1
    29    21    22    1
    30    23    24    1
    31    23    88    1
    32    23    89    1
    33    24    25    1
    34    24    26    1
    35    24    90    1
    36    25    91    1
    37    25    92    1
    38    25    93    1
    39    26    94    1
    40    26    95    1
    41    26    96    1
    42    27    28   ar
    43    28    29   ar
    44    29    30   ar
    45    29    31    1
    46    30    33    1
    47    31    32    1
    48    32    33    1
    49    32    35    1
    50    34    97    1
    51    34    98    1
    52    34    99    1
    53    35    61    1
    54    36    37    1
    55    36    60    1
    56    37    38    1
    57    38    39    1
    58    39    40    1
    59    40    41    1
    60    41    42    1
    61    45   100    1
    62    47   101    1
    63    47   102    1
    64    47   103    1
    65    48   104    1
    66    49   105    1
    67    49   106    1
    68    49   107    1
    69    50   108    1
    70    51    59    1
    71    52   109    1
    72    52   110    1
    73    52   111    1
    74    53    54    1
    75    54    55    2
    76    54    56    1
    77    56   112    1
    78    56   113    1
    79    56   114    1
    80    57   115    1
    81    57   116    1
    82    57   117    1
    83    58   118    1
    84    58   119    1
    85    58   120    1
    86    59   121    1
    87    59   122    1
    88    59   123    1
    89    60    61    2
    90     1    47    1
    91     1    62    1
    92     2    63    1
    93     3    64    1
    94     4    65    1
    95     5     6    1
    96     7     8    2
    97     9    78    1
    98    15    79    1
    99    18    80    1
   100    18    81    1
   101    19    82    1
   102    19    83    1
   103    20    23    1
   104    21    84    1
   105    21    85    1
   106    22    86    1
   107    22    87    1
   108    27    45    1
   109    28    34    1
   110    32    58    1
   111    33    46    2
   112    36    51    1
   113    36    66    1
   114    37    52    1
   115    37    67    1
   116    38    53    1
   117    38    68    1
   118    42    48    1
   119    42    72    1
   120    43    44    2
   121    60    73    1
   122    61    74    1
   123    39    69    1
   124    39    57    1
   125    40    70    1
   126    40    50    1
   127    41    71    1
   128    41    49    1
