@<TRIPOS>MOLECULE
*****
 123 128 0 0 0
SMALL
GASTEIGER

@<TRIPOS>ATOM
     1 C         4.978393   2.224162   0.529037 C.3        1 UNL1     0.0009
     2 C         6.370458   3.092866   -0.333833 C.2        1 UNL1     -0.0787
     3 C         7.683455   3.064201   -0.943147 C.2        1 UNL1     -0.0649
     4 C         8.475735   4.313085   -1.767125 C.2        1 UNL1     -0.0542
     5 C         9.504163   4.625726   -2.689984 C.2        1 UNL1     0.0115
     6 C         10.721234   4.043396   -3.460019 C.3        1 UNL1     -0.0348
     7 C         9.48918   6.058459   -3.413891 C.2        1 UNL1     0.2441
     8 O         10.217202   6.981968   -3.076787 O.2        1 UNL1     -0.2702
     9 N         8.774336   6.099665   -4.623623 N.am        1 UNL1     -0.2772
     10 C         7.449237   6.386572   -4.388847 C.2        1 UNL1     0.1049
     11 C         6.684275   5.365553   -4.047416 C.2        1 UNL1     0.0801
     12 C         5.949377   7.969713   -3.163523 C.ar        1 UNL1     0.0753
     13 C         5.278337   6.813979   -2.651086 C.ar        1 UNL1     0.0305
     14 C         5.542214   5.478151   -3.181163 C.2        1 UNL1     0.0924
     15 N         6.934972   4.04579   -4.091049 N.pl3        1 UNL1     -0.3170
     16 C         5.713031   3.355678   -3.773465 C.3        1 UNL1     0.1275
     17 N         4.950062   4.32101   -2.899545 N.2        1 UNL1     -0.2557
     18 C         4.913659   3.232999   -5.067163 C.3        1 UNL1     0.0016
     19 C         5.776052   2.536158   -6.10749 C.3        1 UNL1     0.0026
     20 N         6.154511   1.224929   -5.599084 N.3        1 UNL1     -0.3018
     21 C         6.875192   1.236638   -4.324388 C.3        1 UNL1     0.0026
     22 C         5.988796   1.936988   -3.293026 C.3        1 UNL1     0.0016
     23 C         6.71973   0.365734   -6.620335 C.3        1 UNL1     0.0012
     24 C         7.743257   -0.601287   -6.004691 C.3        1 UNL1     -0.0339
     25 C         7.242527   -2.054286   -6.05071 C.3        1 UNL1     -0.0615
     26 C         9.085531   -0.450338   -6.699165 C.3        1 UNL1     -0.0615
     27 C         5.60627   9.251102   -2.738742 C.ar        1 UNL1     0.1347
     28 C         4.586029   9.50382   -1.839135 C.ar        1 UNL1     0.0342
     29 C         3.97223   8.348086   -1.311219 C.ar        1 UNL1     0.1435
     30 C         4.329884   7.056591   -1.700249 C.ar        1 UNL1     0.0774
     31 O         2.889374   8.429788   -0.507631 O.3        1 UNL1     -0.4436
     32 C         2.29057   7.12667   -0.572378 C.3        1 UNL1     0.3143
     33 C         3.412654   6.195085   -0.983825 C.2        1 UNL1     0.2504
     34 C         3.997236   10.852024   -1.529671 C.3        1 UNL1     -0.0327
     35 O         1.915062   6.763653   0.761962 O.2        1 UNL1     -0.4528
     36 C         -1.117037   4.507066   0.412277 C.3        1 UNL1     0.0854
     37 C         -1.266499   3.155923   -0.38747 C.3        1 UNL1     0.0236
     38 C         -1.782327   1.910171   0.480728 C.3        1 UNL1     0.1131
     39 C         -1.067748   1.55556   1.846707 C.3        1 UNL1     0.0200
     40 C         0.596464   1.572037   1.958792 C.3        1 UNL1     0.0661
     41 C         1.671788   0.807311   0.892733 C.3        1 UNL1     0.0091
     42 C         3.36167   1.284316   0.361537 C.3        1 UNL1     0.0661
     43 C         6.961912   7.764717   -4.228891 C.2        1 UNL1     0.2131
     44 O         7.308385   8.636761   -5.004928 O.2        1 UNL1     -0.2851
     45 O         6.339227   10.31891   -3.252549 O.3        1 UNL1     -0.5056
     46 O         3.533264   5.012707   -0.752979 O.2        1 UNL1     -0.2836
     47 C         5.350073   1.949843   2.011125 C.3        1 UNL1     -0.0566
     48 O         3.933772   -0.066881   0.576207 O.3        1 UNL1     -0.3909
     49 C         0.916688   0.398851   -0.352449 C.3        1 UNL1     -0.0577
     50 O         1.064981   2.868695   2.270071 O.3        1 UNL1     -0.3910
     51 O         -1.283097   4.417607   1.809364 O.3        1 UNL1     -0.3753
     52 C         -0.163008   3.004239   -1.484853 C.3        1 UNL1     -0.0564
     53 O         -2.247772   0.750511   -0.35046 O.3        1 UNL1     -0.4608
     54 C         -2.060227   -0.572291   -0.045577 C.2        1 UNL1     0.3042
     55 O         -1.654584   -1.460926   -0.793655 O.2        1 UNL1     -0.2512
     56 C         -2.345315   -0.904522   1.391455 C.3        1 UNL1     0.0332
     57 C         -1.900785   2.251187   3.02158 C.3        1 UNL1     -0.0567
     58 C         1.245187   7.181725   -1.710654 C.3        1 UNL1     0.0210
     59 C         -1.087616   5.641773   2.515814 C.3        1 UNL1     0.0372
     60 C         0.157391   5.239101   0.177499 C.2        1 UNL1     -0.0208
     61 C         0.988238   5.826683   1.03958 C.2        1 UNL1     0.0882
     62 H         4.41093   3.162542   0.517241 H        1 UNL1     0.0365
     63 H         6.004428   4.121667   -0.326011 H        1 UNL1     0.0576
     64 H         8.236926   2.130649   -1.066671 H        1 UNL1     0.0615
     65 H         7.892282   5.202778   -1.515113 H        1 UNL1     0.0622
     66 H         -1.91292   5.152552   0.014831 H        1 UNL1     0.0645
     67 H         -2.129598   3.332216   -1.052706 H        1 UNL1     0.0362
     68 H         -2.779743   2.281767   0.761086 H        1 UNL1     0.0741
     69 H         -1.313294   0.536301   2.113589 H        1 UNL1     0.0359
     70 H         0.730208   0.997397   2.895254 H        1 UNL1     0.0600
     71 H         1.790358   -0.167951   1.404362 H        1 UNL1     0.0348
     72 H         3.169336   1.836552   1.292857 H        1 UNL1     0.0602
     73 H         0.301288   5.36367   -0.867022 H        1 UNL1     0.0628
     74 H         0.943969   5.700969   2.121926 H        1 UNL1     0.1022
     75 H         10.803095   4.507453   -4.472434 H        1 UNL1     0.0279
     76 H         11.70292   4.236961   -3.033528 H        1 UNL1     0.0279
     77 H         10.593041   2.981884   -3.717817 H        1 UNL1     0.0279
     78 H         8.815036   5.188825   -5.076164 H        1 UNL1     0.1553
     79 H         7.662675   3.635164   -4.646717 H        1 UNL1     0.1484
     80 H         3.993961   2.67005   -4.867136 H        1 UNL1     0.0317
     81 H         4.604853   4.218749   -5.431288 H        1 UNL1     0.0317
     82 H         6.66391   3.131981   -6.365591 H        1 UNL1     0.0428
     83 H         5.187507   2.460711   -7.022352 H        1 UNL1     0.0428
     84 H         7.077179   0.237684   -3.92551 H        1 UNL1     0.0428
     85 H         7.870721   1.691335   -4.421809 H        1 UNL1     0.0428
     86 H         6.486364   1.809698   -2.349516 H        1 UNL1     0.0317
     87 H         5.052786   1.380026   -3.163511 H        1 UNL1     0.0317
     88 H         5.904423   -0.222558   -7.061335 H        1 UNL1     0.0429
     89 H         7.168177   0.952909   -7.432059 H        1 UNL1     0.0429
     90 H         7.914802   -0.324061   -4.957823 H        1 UNL1     0.0308
     91 H         6.892283   -2.322748   -7.051889 H        1 UNL1     0.0233
     92 H         8.033701   -2.745226   -5.750285 H        1 UNL1     0.0233
     93 H         6.406072   -2.229723   -5.363396 H        1 UNL1     0.0233
     94 H         9.019421   -0.810966   -7.731353 H        1 UNL1     0.0233
     95 H         9.37468   0.603943   -6.728282 H        1 UNL1     0.0233
     96 H         9.86694   -1.016594   -6.184652 H        1 UNL1     0.0233
     97 H         2.931185   10.88756   -1.733392 H        1 UNL1     0.0280
     98 H         4.109969   11.119697   -0.470946 H        1 UNL1     0.0280
     99 H         4.492441   11.621025   -2.144898 H        1 UNL1     0.0280
     100 H         7.272955   10.210446   -3.207719 H        1 UNL1     0.2922
     101 H         4.604447   2.399548   2.666459 H        1 UNL1     0.0236
     102 H         6.361412   2.26568   2.264944 H        1 UNL1     0.0236
     103 H         5.322651   0.874162   2.252688 H        1 UNL1     0.0236
     104 H         3.195494   -0.668296   0.795791 H        1 UNL1     0.2098
     105 H         0.685092   1.219542   -1.02672 H        1 UNL1     0.0234
     106 H         1.361977   -0.429052   -0.90401 H        1 UNL1     0.0234
     107 H         0.0   -0.0   0.0 H        1 UNL1     0.0234
     108 H         2.037419   2.815982   2.343235 H        1 UNL1     0.2098
     109 H         -0.141258   3.860007   -2.173982 H        1 UNL1     0.0234
     110 H         0.837594   2.842656   -1.069606 H        1 UNL1     0.0234
     111 H         -0.336188   2.120667   -2.113547 H        1 UNL1     0.0234
     112 H         -1.454974   -1.338129   1.856883 H        1 UNL1     0.0342
     113 H         -2.695716   -0.038107   1.950372 H        1 UNL1     0.0342
     114 H         -3.141302   -1.661427   1.417215 H        1 UNL1     0.0342
     115 H         -1.894763   1.647255   3.939413 H        1 UNL1     0.0234
     116 H         -1.548495   3.25075   3.283907 H        1 UNL1     0.0234
     117 H         -2.983096   2.314755   2.815418 H        1 UNL1     0.0234
     118 H         0.987564   6.175858   -2.085977 H        1 UNL1     0.0309
     119 H         0.32633   7.70368   -1.425228 H        1 UNL1     0.0309
     120 H         1.621214   7.695321   -2.602243 H        1 UNL1     0.0309
     121 H         -0.025819   5.723261   2.746688 H        1 UNL1     0.0524
     122 H         -1.364579   6.52203   1.912095 H        1 UNL1     0.0524
     123 H         -1.671657   5.644521   3.431774 H        1 UNL1     0.0524
@<TRIPOS>BOND
     1     1     2    1
     2     1    42    1
     3     2     3    2
     4     3     4    1
     5     4     5    2
     6     5     7    1
     7     6    75    1
     8     6    76    1
     9     6    77    1
    10     7     9   am
    11     9    10    1
    12    10    11    2
    13    10    43    1
    14    11    14    1
    15    11    15    1
    16    12    13   ar
    17    12    27   ar
    18    12    43    1
    19    13    14    1
    20    13    30   ar
    21    14    17    2
    22    15    16    1
    23    16    17    1
    24    16    18    1
    25    16    22    1
    26    18    19    1
    27    19    20    1
    28    20    21    1
    29    21    22    1
    30    23    24    1
    31    23    88    1
    32    23    89    1
    33    24    25    1
    34    24    26    1
    35    24    90    1
    36    25    91    1
    37    25    92    1
    38    25    93    1
    39    26    94    1
    40    26    95    1
    41    26    96    1
    42    27    28   ar
    43    28    29   ar
    44    29    30   ar
    45    29    31    1
    46    30    33    1
    47    31    32    1
    48    32    33    1
    49    32    35    1
    50    34    97    1
    51    34    98    1
    52    34    99    1
    53    35    61    1
    54    36    37    1
    55    36    60    1
    56    37    38    1
    57    38    39    1
    58    39    40    1
    59    40    41    1
    60    41    42    1
    61    45   100    1
    62    47   101    1
    63    47   102    1
    64    47   103    1
    65    48   104    1
    66    49   105    1
    67    49   106    1
    68    49   107    1
    69    50   108    1
    70    51    59    1
    71    52   109    1
    72    52   110    1
    73    52   111    1
    74    53    54    1
    75    54    55    2
    76    54    56    1
    77    56   112    1
    78    56   113    1
    79    56   114    1
    80    57   115    1
    81    57   116    1
    82    57   117    1
    83    58   118    1
    84    58   119    1
    85    58   120    1
    86    59   121    1
    87    59   122    1
    88    59   123    1
    89    60    61    2
    90     1    47    1
    91     1    62    1
    92     2    63    1
    93     3    64    1
    94     4    65    1
    95     5     6    1
    96     7     8    2
    97     9    78    1
    98    15    79    1
    99    18    80    1
   100    18    81    1
   101    19    82    1
   102    19    83    1
   103    20    23    1
   104    21    84    1
   105    21    85    1
   106    22    86    1
   107    22    87    1
   108    27    45    1
   109    28    34    1
   110    32    58    1
   111    33    46    2
   112    36    51    1
   113    36    66    1
   114    37    52    1
   115    37    67    1
   116    38    53    1
   117    38    68    1
   118    42    48    1
   119    42    72    1
   120    43    44    2
   121    60    73    1
   122    61    74    1
   123    39    69    1
   124    39    57    1
   125    40    70    1
   126    40    50    1
   127    41    71    1
   128    41    49    1
