@<TRIPOS>MOLECULE
*****
 123 128 0 0 0
SMALL
GASTEIGER

@<TRIPOS>ATOM
     1 C         5.186565   1.704876   0.438416 C.3        1 UNL1     0.0009
     2 C         6.622298   2.495946   -0.427562 C.2        1 UNL1     -0.0787
     3 C         7.89705   2.38464   -1.10481 C.2        1 UNL1     -0.0649
     4 C         8.77821   3.609874   -1.872088 C.2        1 UNL1     -0.0542
     5 C         9.792015   3.890898   -2.820931 C.2        1 UNL1     0.0115
     6 C         10.906645   3.253132   -3.695104 C.3        1 UNL1     -0.0348
     7 C         9.894677   5.371526   -3.432641 C.2        1 UNL1     0.2441
     8 O         10.729163   6.187003   -3.065005 O.2        1 UNL1     -0.2702
     9 N         9.13548   5.581714   -4.59694 N.am        1 UNL1     -0.2772
     10 C         7.85915   5.980505   -4.272487 C.2        1 UNL1     0.1049
     11 C         7.007657   5.017371   -3.969905 C.2        1 UNL1     0.0801
     12 C         6.587954   7.602482   -2.854537 C.ar        1 UNL1     0.0753
     13 C         5.823256   6.482537   -2.396748 C.ar        1 UNL1     0.0305
     14 C         5.922803   5.174026   -3.039353 C.2        1 UNL1     0.0924
     15 N         7.117193   3.686922   -4.126219 N.pl3        1 UNL1     -0.3170
     16 C         5.845116   3.099793   -3.798571 C.3        1 UNL1     0.1275
     17 N         5.226182   4.063355   -2.815621 N.2        1 UNL1     -0.2557
     18 C         4.981149   3.162723   -5.054478 C.3        1 UNL1     0.0016
     19 C         5.719544   2.468829   -6.188001 C.3        1 UNL1     0.0026
     20 N         5.981208   1.089522   -5.800611 N.3        1 UNL1     -0.3018
     21 C         6.754581   0.925987   -4.567924 C.3        1 UNL1     0.0026
     22 C         5.992309   1.626495   -3.441814 C.3        1 UNL1     0.0016
     23 C         6.408247   0.26296   -6.911951 C.3        1 UNL1     0.0012
     24 C         5.241622   0.020809   -7.882573 C.3        1 UNL1     -0.0339
     25 C         5.275114   1.009252   -9.059822 C.3        1 UNL1     -0.0615
     26 C         5.253677   -1.420262   -8.362101 C.3        1 UNL1     -0.0615
     27 C         6.399374   8.873454   -2.316777 C.ar        1 UNL1     0.1347
     28 C         5.451638   9.154129   -1.348754 C.ar        1 UNL1     0.0342
     29 C         4.744495   8.027184   -0.878531 C.ar        1 UNL1     0.1435
     30 C         4.948047   6.741847   -1.382212 C.ar        1 UNL1     0.0774
     31 O         3.712486   8.152299   -0.015798 O.3        1 UNL1     -0.4436
     32 C         2.978788   6.925444   -0.147662 C.3        1 UNL1     0.3143
     33 C         3.978404   5.921988   -0.686232 C.2        1 UNL1     0.2504
     34 C         5.020844   10.525347   -0.907983 C.3        1 UNL1     -0.0327
     35 O         2.626565   6.495682   1.173131 O.2        1 UNL1     -0.4528
     36 C         -0.636762   4.590841   0.812067 C.3        1 UNL1     0.0854
     37 C         -0.961364   3.330418   -0.078713 C.3        1 UNL1     0.0236
     38 C         -1.565576   2.07694   0.718447 C.3        1 UNL1     0.1131
     39 C         -0.832449   1.543396   2.014644 C.3        1 UNL1     0.0200
     40 C         0.827719   1.383428   2.040882 C.3        1 UNL1     0.0661
     41 C         1.769465   0.602885   0.865519 C.3        1 UNL1     0.0091
     42 C         3.47485   0.94886   0.284688 C.3        1 UNL1     0.0661
     43 C         7.525715   7.383261   -3.98361 C.2        1 UNL1     0.2131
     44 O         7.926744   8.275742   -4.708447 O.2        1 UNL1     -0.2851
     45 O         7.216361   9.900092   -2.785802 O.3        1 UNL1     -0.5056
     46 O         3.985097   4.718739   -0.552064 O.2        1 UNL1     -0.2836
     47 C         5.59248   1.276066   1.874152 C.3        1 UNL1     -0.0566
     48 O         3.911816   -0.465879   0.36648 O.3        1 UNL1     -0.3909
     49 C         0.921818   0.374057   -0.365995 C.3        1 UNL1     -0.0577
     50 O         1.442144   2.597108   2.42453 O.3        1 UNL1     -0.3910
     51 O         -0.749595   4.40625   2.205131 O.3        1 UNL1     -0.3753
     52 C         0.070919   3.157502   -1.240368 C.3        1 UNL1     -0.0564
     53 O         -2.185545   1.040698   -0.172713 O.3        1 UNL1     -0.4608
     54 C         -2.428196   -0.262972   0.17297 C.2        1 UNL1     0.3042
     55 O         -1.871928   -1.268299   -0.267167 O.2        1 UNL1     -0.2512
     56 C         -3.459642   -0.416427   1.254304 C.3        1 UNL1     0.0332
     57 C         -1.535882   2.222294   3.280525 C.3        1 UNL1     -0.0567
     58 C         1.895766   7.176831   -1.222556 C.3        1 UNL1     0.0210
     59 C         -1.045609   5.590072   2.944595 C.3        1 UNL1     0.0372
     60 C         0.69548   5.207596   0.567314 C.2        1 UNL1     -0.0208
     61 C         1.620206   5.637309   1.426951 C.2        1 UNL1     0.0882
     62 H         4.720087   2.693426   0.527177 H        1 UNL1     0.0365
     63 H         6.366251   3.552335   -0.322911 H        1 UNL1     0.0576
     64 H         8.344173   1.413188   -1.327226 H        1 UNL1     0.0615
     65 H         8.302378   4.530494   -1.523483 H        1 UNL1     0.0622
     66 H         -1.37771   5.342969   0.506544 H        1 UNL1     0.0645
     67 H         -1.829811   3.645597   -0.682883 H        1 UNL1     0.0362
     68 H         -2.505491   2.523104   1.07764 H        1 UNL1     0.0741
     69 H         -1.170962   0.535806   2.21609 H        1 UNL1     0.0359
     70 H         0.941895   0.724678   2.922966 H        1 UNL1     0.0600
     71 H         1.808087   -0.417392   1.295054 H        1 UNL1     0.0348
     72 H         3.38233   1.440787   1.263853 H        1 UNL1     0.0602
     73 H         0.805471   5.400825   -0.470863 H        1 UNL1     0.0628
     74 H         1.610748   5.429883   2.497522 H        1 UNL1     0.1022
     75 H         10.94289   2.147951   -3.539238 H        1 UNL1     0.0279
     76 H         10.783737   3.333813   -4.772811 H        1 UNL1     0.0279
     77 H         11.917331   3.549958   -3.378701 H        1 UNL1     0.0279
     78 H         9.061017   4.710836   -5.118577 H        1 UNL1     0.1553
     79 H         7.772942   3.251346   -4.748473 H        1 UNL1     0.1484
     80 H         4.017459   2.68079   -4.850004 H        1 UNL1     0.0317
     81 H         4.761099   4.200638   -5.326437 H        1 UNL1     0.0317
     82 H         6.65247   2.991242   -6.44616 H        1 UNL1     0.0428
     83 H         5.086648   2.526882   -7.074073 H        1 UNL1     0.0428
     84 H         6.868652   -0.117085   -4.256798 H        1 UNL1     0.0428
     85 H         7.786841   1.284681   -4.682359 H        1 UNL1     0.0428
     86 H         6.514931   1.374231   -2.537813 H        1 UNL1     0.0317
     87 H         5.009933   1.15782   -3.306252 H        1 UNL1     0.0317
     88 H         7.204084   0.796242   -7.448187 H        1 UNL1     0.0429
     89 H         6.835804   -0.685553   -6.562247 H        1 UNL1     0.0429
     90 H         4.294615   0.149751   -7.345203 H        1 UNL1     0.0308
     91 H         6.220353   0.944213   -9.606992 H        1 UNL1     0.0233
     92 H         4.448421   0.818378   -9.748121 H        1 UNL1     0.0233
     93 H         5.167285   2.050842   -8.733789 H        1 UNL1     0.0233
     94 H         4.55033   -1.548049   -9.192047 H        1 UNL1     0.0233
     95 H         6.251606   -1.685956   -8.721972 H        1 UNL1     0.0233
     96 H         4.972095   -2.109683   -7.56124 H        1 UNL1     0.0233
     97 H         4.231877   10.484703   -0.162927 H        1 UNL1     0.0280
     98 H         5.842076   11.088452   -0.445655 H        1 UNL1     0.0280
     99 H         4.646991   11.091724   -1.776629 H        1 UNL1     0.0280
     100 H         6.752957   10.65436   -3.105113 H        1 UNL1     0.2922
     101 H         4.730639   0.851459   2.388539 H        1 UNL1     0.0236
     102 H         6.05563   2.079097   2.44653 H        1 UNL1     0.0236
     103 H         6.341649   0.466803   1.868431 H        1 UNL1     0.0236
     104 H         4.338324   -0.593019   1.236478 H        1 UNL1     0.2098
     105 H         0.711715   1.27306   -0.939983 H        1 UNL1     0.0234
     106 H         1.278205   -0.419058   -1.023173 H        1 UNL1     0.0234
     107 H         0.0   -0.0   0.0 H        1 UNL1     0.0234
     108 H         1.243514   3.254881   1.730521 H        1 UNL1     0.2098
     109 H         1.098209   3.036152   -0.869341 H        1 UNL1     0.0234
     110 H         -0.175033   2.330514   -1.915157 H        1 UNL1     0.0234
     111 H         0.093757   4.03821   -1.895943 H        1 UNL1     0.0234
     112 H         -3.59928   -1.476318   1.487712 H        1 UNL1     0.0342
     113 H         -3.203167   0.150021   2.148284 H        1 UNL1     0.0342
     114 H         -4.414409   -0.026352   0.875588 H        1 UNL1     0.0342
     115 H         -2.607233   1.983506   3.329266 H        1 UNL1     0.0234
     116 H         -1.092982   1.941495   4.238147 H        1 UNL1     0.0234
     117 H         -1.565309   3.324301   3.228988 H        1 UNL1     0.0234
     118 H         1.002844   7.672797   -0.803374 H        1 UNL1     0.0309
     119 H         2.262383   7.759114   -2.073874 H        1 UNL1     0.0309
     120 H         1.495146   6.247089   -1.641111 H        1 UNL1     0.0309
     121 H         -0.21976   6.285622   2.797828 H        1 UNL1     0.0524
     122 H         -1.964419   6.086104   2.589944 H        1 UNL1     0.0524
     123 H         -1.155867   5.356414   3.999745 H        1 UNL1     0.0524
@<TRIPOS>BOND
     1     1     2    1
     2     1    42    1
     3     2     3    2
     4     3     4    1
     5     4     5    2
     6     5     7    1
     7     6    75    1
     8     6    76    1
     9     6    77    1
    10     7     9   am
    11     9    10    1
    12    10    11    2
    13    10    43    1
    14    11    14    1
    15    11    15    1
    16    12    13   ar
    17    12    27   ar
    18    12    43    1
    19    13    14    1
    20    13    30   ar
    21    14    17    2
    22    15    16    1
    23    16    17    1
    24    16    18    1
    25    16    22    1
    26    18    19    1
    27    19    20    1
    28    20    21    1
    29    21    22    1
    30    23    24    1
    31    23    88    1
    32    23    89    1
    33    24    25    1
    34    24    26    1
    35    24    90    1
    36    25    91    1
    37    25    92    1
    38    25    93    1
    39    26    94    1
    40    26    95    1
    41    26    96    1
    42    27    28   ar
    43    28    29   ar
    44    29    30   ar
    45    29    31    1
    46    30    33    1
    47    31    32    1
    48    32    33    1
    49    32    35    1
    50    34    97    1
    51    34    98    1
    52    34    99    1
    53    35    61    1
    54    36    37    1
    55    36    60    1
    56    37    38    1
    57    38    39    1
    58    39    40    1
    59    40    41    1
    60    41    42    1
    61    45   100    1
    62    47   101    1
    63    47   102    1
    64    47   103    1
    65    48   104    1
    66    49   105    1
    67    49   106    1
    68    49   107    1
    69    50   108    1
    70    51    59    1
    71    52   109    1
    72    52   110    1
    73    52   111    1
    74    53    54    1
    75    54    55    2
    76    54    56    1
    77    56   112    1
    78    56   113    1
    79    56   114    1
    80    57   115    1
    81    57   116    1
    82    57   117    1
    83    58   118    1
    84    58   119    1
    85    58   120    1
    86    59   121    1
    87    59   122    1
    88    59   123    1
    89    60    61    2
    90     1    47    1
    91     1    62    1
    92     2    63    1
    93     3    64    1
    94     4    65    1
    95     5     6    1
    96     7     8    2
    97     9    78    1
    98    15    79    1
    99    18    80    1
   100    18    81    1
   101    19    82    1
   102    19    83    1
   103    20    23    1
   104    21    84    1
   105    21    85    1
   106    22    86    1
   107    22    87    1
   108    27    45    1
   109    28    34    1
   110    32    58    1
   111    33    46    2
   112    36    51    1
   113    36    66    1
   114    37    52    1
   115    37    67    1
   116    38    53    1
   117    38    68    1
   118    42    48    1
   119    42    72    1
   120    43    44    2
   121    60    73    1
   122    61    74    1
   123    39    69    1
   124    39    57    1
   125    40    70    1
   126    40    50    1
   127    41    71    1
   128    41    49    1
