@<TRIPOS>MOLECULE
*****
 123 128 0 0 0
SMALL
GASTEIGER

@<TRIPOS>ATOM
     1 C         -0.20983   1.866368   3.79282 C.3        1 UNL1     0.0009
     2 C         -1.682653   1.989365   4.912062 C.2        1 UNL1     -0.0787
     3 C         -2.760563   2.764832   5.488955 C.2        1 UNL1     -0.0649
     4 C         -4.011785   2.222098   6.49207 C.2        1 UNL1     -0.0542
     5 C         -5.307968   2.50598   6.988456 C.2        1 UNL1     0.0115
     6 C         -6.40906   3.598432   7.074878 C.3        1 UNL1     -0.0348
     7 C         -6.168871   1.316756   7.637749 C.2        1 UNL1     0.2441
     8 O         -6.298474   1.171762   8.845518 O.2        1 UNL1     -0.2702
     9 N         -6.975694   0.609771   6.729256 N.am        1 UNL1     -0.2772
     10 C         -6.269194   -0.428309   6.16661 C.2        1 UNL1     0.1049
     11 C         -5.498222   -0.118659   5.139995 C.2        1 UNL1     0.0801
     12 C         -4.79252   -2.363942   6.741144 C.ar        1 UNL1     0.0753
     13 C         -3.885326   -1.864154   5.753307 C.ar        1 UNL1     0.0305
     14 C         -4.270563   -0.799677   4.829439 C.2        1 UNL1     0.0924
     15 N         -5.441914   1.009292   4.41124 N.pl3        1 UNL1     -0.3170
     16 C         -4.556491   0.772133   3.302171 C.3        1 UNL1     0.1275
     17 N         -3.603288   -0.287036   3.799454 N.2        1 UNL1     -0.2557
     18 C         -5.38021   0.115952   2.198262 C.3        1 UNL1     0.0016
     19 C         -6.563954   1.013879   1.875668 C.3        1 UNL1     0.0026
     20 N         -6.063026   2.314426   1.452966 N.3        1 UNL1     -0.3018
     21 C         -5.207911   2.997494   2.425881 C.3        1 UNL1     0.0026
     22 C         -4.023035   2.079725   2.731927 C.3        1 UNL1     0.0016
     23 C         -7.084696   3.140609   0.8412 C.3        1 UNL1     0.0012
     24 C         -7.479771   2.578912   -0.533634 C.3        1 UNL1     -0.0339
     25 C         -7.837559   3.703701   -1.518972 C.3        1 UNL1     -0.0615
     26 C         -6.369104   1.694911   -1.073764 C.3        1 UNL1     -0.0615
     27 C         -4.461929   -3.458382   7.536775 C.ar        1 UNL1     0.1347
     28 C         -3.274587   -4.157032   7.40966 C.ar        1 UNL1     0.0342
     29 C         -2.376666   -3.617104   6.464472 C.ar        1 UNL1     0.1435
     30 C         -2.679414   -2.499535   5.685624 C.ar        1 UNL1     0.0774
     31 O         -1.224913   -4.247437   6.14643 O.3        1 UNL1     -0.4436
     32 C         -0.845405   -3.691468   4.878461 C.3        1 UNL1     0.3143
     33 C         -1.532398   -2.342267   4.815918 C.2        1 UNL1     0.2504
     34 C         -2.958265   -5.481372   8.046969 C.3        1 UNL1     -0.0327
     35 O         0.564366   -3.439874   4.928449 O.2        1 UNL1     -0.4528
     36 C         1.816994   -3.82414   1.365957 C.3        1 UNL1     0.0854
     37 C         1.358636   -3.065491   0.061395 C.3        1 UNL1     0.0236
     38 C         2.537076   -2.336465   -0.745789 C.3        1 UNL1     0.1131
     39 C         3.531758   -1.372024   0.017579 C.3        1 UNL1     0.0200
     40 C         2.955016   -0.275412   1.134382 C.3        1 UNL1     0.0661
     41 C         1.671817   0.807427   0.892574 C.3        1 UNL1     0.0091
     42 C         0.435774   1.470899   2.074693 C.3        1 UNL1     0.0661
     43 C         -6.133328   -1.734059   6.829114 C.2        1 UNL1     0.2131
     44 O         -7.104056   -2.282988   7.318094 O.2        1 UNL1     -0.2851
     45 O         -5.382333   -3.85316   8.505509 O.3        1 UNL1     -0.5056
     46 O         -1.196366   -1.353234   4.203751 O.2        1 UNL1     -0.2836
     47 C         1.016682   2.567281   4.436537 C.3        1 UNL1     -0.0566
     48 O         0.599253   2.876945   1.632622 O.3        1 UNL1     -0.3909
     49 C         0.916617   0.398936   -0.352537 C.3        1 UNL1     -0.0577
     50 O         2.851628   -0.86938   2.412754 O.3        1 UNL1     -0.3910
     51 O         3.157433   -3.62596   1.755032 O.3        1 UNL1     -0.3753
     52 C         -0.055922   -2.42083   0.229882 C.3        1 UNL1     -0.0564
     53 O         2.149956   -1.93102   -2.137938 O.3        1 UNL1     -0.4608
     54 C         2.979201   -1.94199   -3.228883 C.2        1 UNL1     0.3042
     55 O         3.12943   -1.048985   -4.061837 O.2        1 UNL1     -0.2512
     56 C         3.81377   -3.186347   -3.337434 C.3        1 UNL1     0.0332
     57 C         4.825083   -2.226628   0.411454 C.3        1 UNL1     -0.0567
     58 C         -1.455739   -4.61269   3.796624 C.3        1 UNL1     0.0210
     59 C         4.013456   -4.74886   1.54964 C.3        1 UNL1     0.0372
     60 C         0.978663   -3.569192   2.569021 C.2        1 UNL1     -0.0208
     61 C         1.330915   -3.309052   3.828779 C.2        1 UNL1     0.0882
     62 H         -0.130532   0.802202   4.04575 H        1 UNL1     0.0365
     63 H         -1.68093   0.993891   5.360949 H        1 UNL1     0.0576
     64 H         -2.956916   3.792938   5.176623 H        1 UNL1     0.0615
     65 H         -3.680856   1.228813   6.807278 H        1 UNL1     0.0622
     66 H         1.685072   -4.888791   1.126876 H        1 UNL1     0.0645
     67 H         1.08271   -3.875009   -0.636534 H        1 UNL1     0.0362
     68 H         3.139034   -3.21451   -1.025439 H        1 UNL1     0.0741
     69 H         4.024472   -0.736519   -0.706144 H        1 UNL1     0.0359
     70 H         3.831039   0.396653   1.211672 H        1 UNL1     0.0600
     71 H         2.230866   1.691126   0.527203 H        1 UNL1     0.0348
     72 H         1.270949   1.09922   2.685964 H        1 UNL1     0.0602
     73 H         -0.040145   -3.746894   2.328812 H        1 UNL1     0.0628
     74 H         2.34357   -3.058764   4.146779 H        1 UNL1     0.1022
     75 H         -5.964371   4.581253   7.36358 H        1 UNL1     0.0279
     76 H         -6.927708   3.838757   6.149505 H        1 UNL1     0.0279
     77 H         -7.113428   3.427781   7.90219 H        1 UNL1     0.0279
     78 H         -7.264016   1.228732   5.974382 H        1 UNL1     0.1553
     79 H         -6.176818   1.69201   4.383911 H        1 UNL1     0.1484
     80 H         -4.74245   -0.037235   1.319307 H        1 UNL1     0.0317
     81 H         -5.730634   -0.874549   2.507719 H        1 UNL1     0.0317
     82 H         -7.246072   1.112008   2.732989 H        1 UNL1     0.0428
     83 H         -7.138716   0.526304   1.087653 H        1 UNL1     0.0428
     84 H         -4.78083   3.933785   2.053357 H        1 UNL1     0.0428
     85 H         -5.767739   3.297698   3.322423 H        1 UNL1     0.0428
     86 H         -3.355203   2.661908   3.339423 H        1 UNL1     0.0317
     87 H         -3.443127   1.899289   1.818557 H        1 UNL1     0.0317
     88 H         -7.969195   3.127436   1.491416 H        1 UNL1     0.0429
     89 H         -6.758481   4.185721   0.763104 H        1 UNL1     0.0429
     90 H         -8.352725   1.925722   -0.417415 H        1 UNL1     0.0308
     91 H         -8.046675   4.640658   -0.994105 H        1 UNL1     0.0233
     92 H         -7.025659   3.865478   -2.231893 H        1 UNL1     0.0233
     93 H         -8.726717   3.468419   -2.116362 H        1 UNL1     0.0233
     94 H         -5.558826   2.311129   -1.47819 H        1 UNL1     0.0233
     95 H         -5.955863   1.080452   -0.269007 H        1 UNL1     0.0233
     96 H         -6.733025   1.037624   -1.868436 H        1 UNL1     0.0233
     97 H         -2.714658   -6.240518   7.309688 H        1 UNL1     0.0280
     98 H         -2.089453   -5.421927   8.715467 H        1 UNL1     0.0280
     99 H         -3.828944   -5.829355   8.626556 H        1 UNL1     0.0280
     100 H         -5.704536   -3.154383   9.047282 H        1 UNL1     0.2922
     101 H         1.842877   1.861263   4.517761 H        1 UNL1     0.0236
     102 H         0.787898   3.040637   5.390777 H        1 UNL1     0.0236
     103 H         1.40649   3.382729   3.804646 H        1 UNL1     0.0236
     104 H         1.338167   3.262526   2.142821 H        1 UNL1     0.2098
     105 H         0.684881   1.219625   -1.026763 H        1 UNL1     0.0234
     106 H         1.361916   -0.428917   -0.904167 H        1 UNL1     0.0234
     107 H         0.0   -0.0   0.0 H        1 UNL1     0.0234
     108 H         2.052094   -0.504296   2.838462 H        1 UNL1     0.2098
     109 H         -0.832574   -3.170217   0.437106 H        1 UNL1     0.0234
     110 H         -0.08475   -1.641057   0.99856 H        1 UNL1     0.0234
     111 H         -0.377147   -1.904963   -0.6848 H        1 UNL1     0.0234
     112 H         4.875822   -2.922959   -3.34169 H        1 UNL1     0.0342
     113 H         3.591184   -3.899184   -2.544868 H        1 UNL1     0.0342
     114 H         3.583272   -3.671526   -4.29589 H        1 UNL1     0.0342
     115 H         4.698446   -3.291939   0.174256 H        1 UNL1     0.0234
     116 H         5.744099   -1.889549   -0.072112 H        1 UNL1     0.0234
     117 H         5.008803   -2.270786   1.498762 H        1 UNL1     0.0234
     118 H         -0.682567   -5.186942   3.256768 H        1 UNL1     0.0309
     119 H         -2.203915   -5.305558   4.19458 H        1 UNL1     0.0309
     120 H         -1.955799   -4.051307   2.999821 H        1 UNL1     0.0309
     121 H         3.952147   -5.377003   2.437916 H        1 UNL1     0.0524
     122 H         3.700534   -5.361357   0.687687 H        1 UNL1     0.0524
     123 H         5.036486   -4.418139   1.394309 H        1 UNL1     0.0524
@<TRIPOS>BOND
     1     1     2    1
     2     1    42    1
     3     2     3    2
     4     3     4    1
     5     4     5    2
     6     5     7    1
     7     6    75    1
     8     6    76    1
     9     6    77    1
    10     7     9   am
    11     9    10    1
    12    10    11    2
    13    10    43    1
    14    11    14    1
    15    11    15    1
    16    12    13   ar
    17    12    27   ar
    18    12    43    1
    19    13    14    1
    20    13    30   ar
    21    14    17    2
    22    15    16    1
    23    16    17    1
    24    16    18    1
    25    16    22    1
    26    18    19    1
    27    19    20    1
    28    20    21    1
    29    21    22    1
    30    23    24    1
    31    23    88    1
    32    23    89    1
    33    24    25    1
    34    24    26    1
    35    24    90    1
    36    25    91    1
    37    25    92    1
    38    25    93    1
    39    26    94    1
    40    26    95    1
    41    26    96    1
    42    27    28   ar
    43    28    29   ar
    44    29    30   ar
    45    29    31    1
    46    30    33    1
    47    31    32    1
    48    32    33    1
    49    32    35    1
    50    34    97    1
    51    34    98    1
    52    34    99    1
    53    35    61    1
    54    36    37    1
    55    36    60    1
    56    37    38    1
    57    38    39    1
    58    39    40    1
    59    40    41    1
    60    41    42    1
    61    45   100    1
    62    47   101    1
    63    47   102    1
    64    47   103    1
    65    48   104    1
    66    49   105    1
    67    49   106    1
    68    49   107    1
    69    50   108    1
    70    51    59    1
    71    52   109    1
    72    52   110    1
    73    52   111    1
    74    53    54    1
    75    54    55    2
    76    54    56    1
    77    56   112    1
    78    56   113    1
    79    56   114    1
    80    57   115    1
    81    57   116    1
    82    57   117    1
    83    58   118    1
    84    58   119    1
    85    58   120    1
    86    59   121    1
    87    59   122    1
    88    59   123    1
    89    60    61    2
    90     1    47    1
    91     1    62    1
    92     2    63    1
    93     3    64    1
    94     4    65    1
    95     5     6    1
    96     7     8    2
    97     9    78    1
    98    15    79    1
    99    18    80    1
   100    18    81    1
   101    19    82    1
   102    19    83    1
   103    20    23    1
   104    21    84    1
   105    21    85    1
   106    22    86    1
   107    22    87    1
   108    27    45    1
   109    28    34    1
   110    32    58    1
   111    33    46    2
   112    36    51    1
   113    36    66    1
   114    37    52    1
   115    37    67    1
   116    38    53    1
   117    38    68    1
   118    42    48    1
   119    42    72    1
   120    43    44    2
   121    60    73    1
   122    61    74    1
   123    39    69    1
   124    39    57    1
   125    40    70    1
   126    40    50    1
   127    41    71    1
   128    41    49    1
