@<TRIPOS>MOLECULE
*****
 123 128 0 0 0
SMALL
GASTEIGER

@<TRIPOS>ATOM
     1 C         -3.971696   -1.740972   2.233245 C.3        1 UNL1     0.0009
     2 C         -5.255046   -3.061506   2.018209 C.2        1 UNL1     -0.0787
     3 C         -6.477821   -3.536859   1.405914 C.2        1 UNL1     -0.0649
     4 C         -7.177803   -5.072924   1.535869 C.2        1 UNL1     -0.0542
     5 C         -8.083644   -5.989596   0.947446 C.2        1 UNL1     0.0115
     6 C         -9.181393   -6.148723   -0.140189 C.3        1 UNL1     -0.0348
     7 C         -7.999176   -7.538632   1.36017 C.2        1 UNL1     0.2441
     8 O         -8.779816   -8.06218   2.143129 O.2        1 UNL1     -0.2702
     9 N         -7.135043   -8.313256   0.566832 N.am        1 UNL1     -0.2772
     10 C         -5.856241   -8.277004   1.073461 C.2        1 UNL1     0.1049
     11 C         -5.124882   -7.231218   0.73336 C.2        1 UNL1     0.0801
     12 C         -4.553432   -8.54775   3.191648 C.ar        1 UNL1     0.0753
     13 C         -3.93502   -7.295342   2.879159 C.ar        1 UNL1     0.0305
     14 C         -4.106124   -6.662203   1.573438 C.2        1 UNL1     0.0924
     15 N         -5.34593   -6.289092   -0.199411 N.pl3        1 UNL1     -0.3170
     16 C         -4.163886   -5.473622   -0.289042 C.3        1 UNL1     0.1275
     17 N         -3.536135   -5.566376   1.080282 N.2        1 UNL1     -0.2557
     18 C         -3.202394   -6.174487   -1.244042 C.3        1 UNL1     0.0016
     19 C         -3.911714   -6.39972   -2.569834 C.3        1 UNL1     0.0026
     20 N         -4.330789   -5.110099   -3.101136 N.3        1 UNL1     -0.3018
     21 C         -5.209966   -4.332817   -2.225209 C.3        1 UNL1     0.0026
     22 C         -4.475749   -4.114359   -0.901164 C.3        1 UNL1     0.0016
     23 C         -4.745226   -5.179387   -4.48825 C.3        1 UNL1     0.0012
     24 C         -3.534169   -5.430877   -5.400308 C.3        1 UNL1     -0.0339
     25 C         -3.694414   -4.723088   -6.75582 C.3        1 UNL1     -0.0615
     26 C         -2.255941   -5.008762   -4.696938 C.3        1 UNL1     -0.0615
     27 C         -4.289285   -9.20358   4.391745 C.ar        1 UNL1     0.1347
     28 C         -3.39794   -8.726537   5.336194 C.ar        1 UNL1     0.0342
     29 C         -2.83828   -7.468128   5.029031 C.ar        1 UNL1     0.1435
     30 C         -3.121294   -6.782262   3.847205 C.ar        1 UNL1     0.0774
     31 O         -1.869629   -6.921512   5.7958 O.3        1 UNL1     -0.4436
     32 C         -1.245945   -5.943689   4.949778 C.3        1 UNL1     0.3143
     33 C         -2.289975   -5.598172   3.907266 C.2        1 UNL1     0.2504
     34 C         -2.876427   -9.490371   6.521387 C.3        1 UNL1     -0.0327
     35 O         -1.039721   -4.766221   5.7399 O.2        1 UNL1     -0.4528
     36 C         2.049162   -3.083484   4.313265 C.3        1 UNL1     0.0854
     37 C         2.322925   -2.586102   2.841807 C.3        1 UNL1     0.0236
     38 C         2.743047   -1.043487   2.716989 C.3        1 UNL1     0.1131
     39 C         1.864222   0.068857   3.418864 C.3        1 UNL1     0.0200
     40 C         0.199412   0.008668   3.333873 C.3        1 UNL1     0.0661
     41 C         -0.716585   -0.198173   1.921154 C.3        1 UNL1     0.0091
     42 C         -2.331509   -1.028657   1.660922 C.3        1 UNL1     0.0661
     43 C         -5.416547   -9.169062   2.15663 C.2        1 UNL1     0.2131
     44 O         -5.67444   -10.358574   2.120723 O.2        1 UNL1     -0.2851
     45 O         -4.967453   -10.395513   4.638366 O.3        1 UNL1     -0.5056
     46 O         -2.419726   -4.568911   3.283054 O.2        1 UNL1     -0.2836
     47 C         -4.526843   -0.587359   3.111294 C.3        1 UNL1     -0.0566
     48 O         -2.90403   0.083503   0.864407 O.3        1 UNL1     -0.3909
     49 C         0.199493   -0.65616   0.808255 C.3        1 UNL1     -0.0577
     50 O         -0.326784   -0.792584   4.372543 O.3        1 UNL1     -0.3910
     51 O         2.035087   -2.085062   5.308447 O.3        1 UNL1     -0.3753
     52 C         1.372872   -3.275081   1.808533 C.3        1 UNL1     -0.0564
     53 O         3.330988   -0.687221   1.382925 O.3        1 UNL1     -0.4608
     54 C         3.127651   0.491109   0.713507 C.2        1 UNL1     0.3042
     55 O         2.383119   0.685841   -0.246488 O.2        1 UNL1     -0.2512
     56 C         3.88255   1.651834   1.296225 C.3        1 UNL1     0.0332
     57 C         2.5271   0.381382   4.840516 C.3        1 UNL1     -0.0567
     58 C         -0.063527   -6.657528   4.254183 C.3        1 UNL1     0.0210
     59 C         3.164818   -2.091484   6.179957 C.3        1 UNL1     0.0372
     60 C         0.8037   -3.879725   4.486428 C.2        1 UNL1     -0.0208
     61 C         -0.141036   -3.813592   5.425494 C.2        1 UNL1     0.0882
     62 H         -3.423095   -2.410584   2.906572 H        1 UNL1     0.0365
     63 H         -4.910198   -3.800695   2.74426 H        1 UNL1     0.0576
     64 H         -6.995174   -2.958881   0.636892 H        1 UNL1     0.0615
     65 H         -6.646569   -5.531299   2.374419 H        1 UNL1     0.0622
     66 H         2.878847   -3.77063   4.531208 H        1 UNL1     0.0645
     67 H         3.261579   -3.09288   2.557791 H        1 UNL1     0.0362
     68 H         3.689665   -1.064657   3.278227 H        1 UNL1     0.0741
     69 H         2.090163   1.026323   2.968735 H        1 UNL1     0.0359
     70 H         -0.044459   1.045749   3.633959 H        1 UNL1     0.0600
     71 H         -0.883966   0.860752   1.642549 H        1 UNL1     0.0348
     72 H         -2.270098   -0.815722   2.738049 H        1 UNL1     0.0602
     73 H         0.793691   -4.670865   3.778441 H        1 UNL1     0.0628
     74 H         -0.23467   -3.003985   6.150067 H        1 UNL1     0.1022
     75 H         -9.912587   -5.306475   -0.085344 H        1 UNL1     0.0279
     76 H         -8.849255   -6.103595   -1.174943 H        1 UNL1     0.0279
     77 H         -9.834872   -7.01513   0.038713 H        1 UNL1     0.0279
     78 H         -7.101918   -7.931321   -0.376091 H        1 UNL1     0.1553
     79 H         -5.988967   -6.400109   -0.961718 H        1 UNL1     0.1484
     80 H         -2.306971   -5.553757   -1.369251 H        1 UNL1     0.0317
     81 H         -2.865593   -7.130321   -0.828592 H        1 UNL1     0.0317
     82 H         -4.768622   -7.080974   -2.462529 H        1 UNL1     0.0428
     83 H         -3.208909   -6.902126   -3.235193 H        1 UNL1     0.0428
     84 H         -5.445119   -3.336417   -2.612121 H        1 UNL1     0.0428
     85 H         -6.192015   -4.810442   -2.103675 H        1 UNL1     0.0428
     86 H         -5.088683   -3.434508   -0.338934 H        1 UNL1     0.0317
     87 H         -3.555156   -3.543318   -1.072969 H        1 UNL1     0.0317
     88 H         -5.443333   -6.020007   -4.59454 H        1 UNL1     0.0429
     89 H         -5.285688   -4.27253   -4.788725 H        1 UNL1     0.0429
     90 H         -3.436248   -6.50833   -5.578409 H        1 UNL1     0.0308
     91 H         -4.033785   -3.690833   -6.627842 H        1 UNL1     0.0233
     92 H         -2.750765   -4.724718   -7.306396 H        1 UNL1     0.0233
     93 H         -4.426818   -5.220847   -7.402855 H        1 UNL1     0.0233
     94 H         -1.46712   -4.814234   -5.431619 H        1 UNL1     0.0233
     95 H         -2.426432   -4.087199   -4.133362 H        1 UNL1     0.0233
     96 H         -1.904436   -5.783115   -4.00934 H        1 UNL1     0.0233
     97 H         -1.793741   -9.573161   6.508459 H        1 UNL1     0.0280
     98 H         -3.129207   -9.002617   7.47189 H        1 UNL1     0.0280
     99 H         -3.300823   -10.507712   6.520592 H        1 UNL1     0.0280
     100 H         -5.897245   -10.352919   4.499462 H        1 UNL1     0.2922
     101 H         -4.099605   -0.648648   4.111978 H        1 UNL1     0.0236
     102 H         -5.615505   -0.550882   3.132921 H        1 UNL1     0.0236
     103 H         -4.21988   0.403205   2.736127 H        1 UNL1     0.0236
     104 H         -2.596722   0.920873   1.263585 H        1 UNL1     0.2098
     105 H         1.259053   -0.58504   1.040818 H        1 UNL1     0.0234
     106 H         -0.033098   -1.640925   0.403204 H        1 UNL1     0.0234
     107 H         0.0   0.0   -0.0 H        1 UNL1     0.0234
     108 H         -1.221721   -0.456862   4.572909 H        1 UNL1     0.2098
     109 H         1.498779   -4.366666   1.79114 H        1 UNL1     0.0234
     110 H         0.316756   -3.030504   1.965197 H        1 UNL1     0.0234
     111 H         1.575441   -2.936147   0.78382 H        1 UNL1     0.0234
     112 H         3.660635   2.561818   0.730515 H        1 UNL1     0.0342
     113 H         3.6697   1.788566   2.355396 H        1 UNL1     0.0342
     114 H         4.957365   1.446946   1.196437 H        1 UNL1     0.0342
     115 H         2.399568   1.434123   5.128026 H        1 UNL1     0.0234
     116 H         2.137848   -0.231225   5.656141 H        1 UNL1     0.0234
     117 H         3.627057   0.291755   4.842264 H        1 UNL1     0.0234
     118 H         0.91298   -6.292327   4.617595 H        1 UNL1     0.0309
     119 H         -0.099121   -7.746792   4.356357 H        1 UNL1     0.0309
     120 H         -0.024425   -6.455003   3.178283 H        1 UNL1     0.0309
     121 H         2.855935   -1.642277   7.123441 H        1 UNL1     0.0524
     122 H         3.518698   -3.112747   6.398652 H        1 UNL1     0.0524
     123 H         3.980017   -1.52192   5.742758 H        1 UNL1     0.0524
@<TRIPOS>BOND
     1     1     2    1
     2     1    42    1
     3     2     3    2
     4     3     4    1
     5     4     5    2
     6     5     7    1
     7     6    75    1
     8     6    76    1
     9     6    77    1
    10     7     9   am
    11     9    10    1
    12    10    11    2
    13    10    43    1
    14    11    14    1
    15    11    15    1
    16    12    13   ar
    17    12    27   ar
    18    12    43    1
    19    13    14    1
    20    13    30   ar
    21    14    17    2
    22    15    16    1
    23    16    17    1
    24    16    18    1
    25    16    22    1
    26    18    19    1
    27    19    20    1
    28    20    21    1
    29    21    22    1
    30    23    24    1
    31    23    88    1
    32    23    89    1
    33    24    25    1
    34    24    26    1
    35    24    90    1
    36    25    91    1
    37    25    92    1
    38    25    93    1
    39    26    94    1
    40    26    95    1
    41    26    96    1
    42    27    28   ar
    43    28    29   ar
    44    29    30   ar
    45    29    31    1
    46    30    33    1
    47    31    32    1
    48    32    33    1
    49    32    35    1
    50    34    97    1
    51    34    98    1
    52    34    99    1
    53    35    61    1
    54    36    37    1
    55    36    60    1
    56    37    38    1
    57    38    39    1
    58    39    40    1
    59    40    41    1
    60    41    42    1
    61    45   100    1
    62    47   101    1
    63    47   102    1
    64    47   103    1
    65    48   104    1
    66    49   105    1
    67    49   106    1
    68    49   107    1
    69    50   108    1
    70    51    59    1
    71    52   109    1
    72    52   110    1
    73    52   111    1
    74    53    54    1
    75    54    55    2
    76    54    56    1
    77    56   112    1
    78    56   113    1
    79    56   114    1
    80    57   115    1
    81    57   116    1
    82    57   117    1
    83    58   118    1
    84    58   119    1
    85    58   120    1
    86    59   121    1
    87    59   122    1
    88    59   123    1
    89    60    61    2
    90     1    47    1
    91     1    62    1
    92     2    63    1
    93     3    64    1
    94     4    65    1
    95     5     6    1
    96     7     8    2
    97     9    78    1
    98    15    79    1
    99    18    80    1
   100    18    81    1
   101    19    82    1
   102    19    83    1
   103    20    23    1
   104    21    84    1
   105    21    85    1
   106    22    86    1
   107    22    87    1
   108    27    45    1
   109    28    34    1
   110    32    58    1
   111    33    46    2
   112    36    51    1
   113    36    66    1
   114    37    52    1
   115    37    67    1
   116    38    53    1
   117    38    68    1
   118    42    48    1
   119    42    72    1
   120    43    44    2
   121    60    73    1
   122    61    74    1
   123    39    69    1
   124    39    57    1
   125    40    70    1
   126    40    50    1
   127    41    71    1
   128    41    49    1
