@<TRIPOS>MOLECULE
*****
 123 128 0 0 0
SMALL
GASTEIGER

@<TRIPOS>ATOM
     1 C         5.313077   0.515231   -1.231872 C.3        1 UNL1     0.0009
     2 C         7.054487   0.234931   -0.660945 C.2        1 UNL1     -0.0787
     3 C         8.29183   0.742948   -0.106918 C.2        1 UNL1     -0.0649
     4 C         9.665254   -0.135195   0.350172 C.2        1 UNL1     -0.0542
     5 C         10.847358   -0.118468   1.13083 C.2        1 UNL1     0.0115
     6 C         11.777925   0.78796   1.982744 C.3        1 UNL1     -0.0348
     7 C         11.573408   -1.509188   1.471033 C.2        1 UNL1     0.2441
     8 O         12.577709   -1.89535   0.888982 O.2        1 UNL1     -0.2702
     9 N         11.134367   -2.128868   2.653992 N.am        1 UNL1     -0.2772
     10 C         10.054923   -2.942759   2.397662 C.2        1 UNL1     0.1049
     11 C         8.876473   -2.348521   2.34911 C.2        1 UNL1     0.0801
     12 C         9.251373   -4.747067   0.862698 C.ar        1 UNL1     0.0753
     13 C         8.071602   -3.957625   0.679587 C.ar        1 UNL1     0.0305
     14 C         7.790328   -2.795805   1.51989 C.2        1 UNL1     0.0924
     15 N         8.520191   -1.105333   2.715269 N.pl3        1 UNL1     -0.3170
     16 C         7.08738   -1.01323   2.621335 C.3        1 UNL1     0.1275
     17 N         6.713171   -2.016562   1.557843 N.2        1 UNL1     -0.2557
     18 C         6.513135   -1.548651   3.92949 C.3        1 UNL1     0.0016
     19 C         7.118317   -0.764825   5.083163 C.3        1 UNL1     0.0026
     20 N         6.7989   0.645384   4.909054 N.3        1 UNL1     -0.3018
     21 C         7.257129   1.235771   3.649753 C.3        1 UNL1     0.0026
     22 C         6.633562   0.435902   2.504647 C.3        1 UNL1     0.0016
     23 C         7.066475   1.434779   6.094762 C.3        1 UNL1     0.0012
     24 C         6.058972   1.097408   7.205111 C.3        1 UNL1     -0.0339
     25 C         6.739248   0.380303   8.382838 C.3        1 UNL1     -0.0615
     26 C         5.340915   2.357118   7.657112 C.3        1 UNL1     -0.0615
     27 C         9.453685   -5.920795   0.140513 C.ar        1 UNL1     0.1347
     28 C         8.53255   -6.425094   -0.760177 C.ar        1 UNL1     0.0342
     29 C         7.401185   -5.605824   -0.960115 C.ar        1 UNL1     0.1435
     30 C         7.20209   -4.409191   -0.27044 C.ar        1 UNL1     0.0774
     31 O         6.362823   -6.012053   -1.722866 O.3        1 UNL1     -0.4436
     32 C         5.265307   -5.182422   -1.312933 C.3        1 UNL1     0.3143
     33 C         5.905228   -3.944893   -0.716917 C.2        1 UNL1     0.2504
     34 C         8.563763   -7.794532   -1.379665 C.3        1 UNL1     -0.0327
     35 O         4.579017   -4.766623   -2.500101 O.2        1 UNL1     -0.4528
     36 C         0.9475   -4.306767   -1.495757 C.3        1 UNL1     0.0854
     37 C         0.332772   -3.380049   -0.377354 C.3        1 UNL1     0.0236
     38 C         -0.801057   -2.3669   -0.886967 C.3        1 UNL1     0.1131
     39 C         -0.523666   -1.445089   -2.142192 C.3        1 UNL1     0.0200
     40 C         0.93994   -0.662422   -2.308707 C.3        1 UNL1     0.0661
     41 C         1.707194   0.273432   -1.119965 C.3        1 UNL1     0.0091
     42 C         3.490625   0.537723   -0.780956 C.3        1 UNL1     0.0661
     43 C         10.210833   -4.321942   1.911967 C.2        1 UNL1     0.2131
     44 O         11.015974   -5.073006   2.431957 O.2        1 UNL1     -0.2851
     45 O         10.649505   -6.606077   0.345065 O.3        1 UNL1     -0.5056
     46 O         5.454921   -2.823227   -0.646609 O.2        1 UNL1     -0.2836
     47 C         5.305797   1.232753   -2.608495 C.3        1 UNL1     -0.0566
     48 O         3.367398   2.011149   -0.667159 O.3        1 UNL1     -0.3909
     49 C         1.038544   0.014628   0.211734 C.3        1 UNL1     -0.0577
     50 O         1.883603   -1.495701   -2.951257 O.3        1 UNL1     -0.3910
     51 O         0.558585   -4.015969   -2.819242 O.3        1 UNL1     -0.3753
     52 C         1.400957   -2.965197   0.686519 C.3        1 UNL1     -0.0564
     53 O         -1.606029   -1.75838   0.223911 O.3        1 UNL1     -0.4608
     54 C         -2.070016   -0.469338   0.255768 C.2        1 UNL1     0.3042
     55 O         -1.465371   0.532925   0.63486 O.2        1 UNL1     -0.2512
     56 C         -3.458173   -0.315986   -0.297602 C.3        1 UNL1     0.0332
     57 C         -1.122899   -2.186202   -3.426656 C.3        1 UNL1     -0.0567
     58 C         4.529577   -5.952767   -0.191862 C.3        1 UNL1     0.0210
     59 C         -0.337792   -4.960883   -3.401918 C.3        1 UNL1     0.0372
     60 C         2.433323   -4.393305   -1.49417 C.2        1 UNL1     -0.0208
     61 C         3.303808   -4.333239   -2.502829 C.2        1 UNL1     0.0882
     62 H         5.228217   -0.558523   -1.438182 H        1 UNL1     0.0365
     63 H         7.18506   -0.818927   -0.915514 H        1 UNL1     0.0576
     64 H         8.386049   1.777858   0.229524 H        1 UNL1     0.0615
     65 H         9.506473   -1.119534   -0.098546 H        1 UNL1     0.0622
     66 H         0.586686   -5.314954   -1.247931 H        1 UNL1     0.0645
     67 H         -0.256499   -4.071478   0.249738 H        1 UNL1     0.0362
     68 H         -1.559657   -3.091875   -1.21932 H        1 UNL1     0.0741
     69 H         -1.230945   -0.626477   -2.135916 H        1 UNL1     0.0359
     70 H         0.66817   0.089314   -3.074275 H        1 UNL1     0.0600
     71 H         1.306128   1.274393   -1.373302 H        1 UNL1     0.0348
     72 H         3.430087   0.167069   -1.814525 H        1 UNL1     0.0602
     73 H         2.767107   -4.651185   -0.519832 H        1 UNL1     0.0628
     74 H         3.052192   -4.02019   -3.516697 H        1 UNL1     0.1022
     75 H         12.001824   1.738699   1.441449 H        1 UNL1     0.0279
     76 H         11.374562   1.145646   2.927428 H        1 UNL1     0.0279
     77 H         12.786134   0.366   2.105895 H        1 UNL1     0.0279
     78 H         10.832586   -1.420362   3.319593 H        1 UNL1     0.1553
     79 H         9.062736   -0.52947   3.332489 H        1 UNL1     0.1484
     80 H         5.421097   -1.449989   3.907472 H        1 UNL1     0.0317
     81 H         6.729154   -2.616335   4.043676 H        1 UNL1     0.0317
     82 H         8.205151   -0.918671   5.154115 H        1 UNL1     0.0428
     83 H         6.696661   -1.163997   6.006157 H        1 UNL1     0.0428
     84 H         6.935713   2.272409   3.508736 H        1 UNL1     0.0428
     85 H         8.353465   1.286885   3.597303 H        1 UNL1     0.0428
     86 H         6.880792   0.973227   1.607905 H        1 UNL1     0.0317
     87 H         5.539954   0.507143   2.549856 H        1 UNL1     0.0317
     88 H         8.074867   1.185856   6.450399 H        1 UNL1     0.0429
     89 H         7.061306   2.508779   5.868331 H        1 UNL1     0.0429
     90 H         5.282113   0.439711   6.79751 H        1 UNL1     0.0308
     91 H         7.668857   0.880834   8.66989 H        1 UNL1     0.0233
     92 H         6.072398   0.339116   9.247258 H        1 UNL1     0.0233
     93 H         6.997513   -0.658966   8.146078 H        1 UNL1     0.0233
     94 H         4.932179   2.21829   8.663838 H        1 UNL1     0.0233
     95 H         6.042414   3.195409   7.690727 H        1 UNL1     0.0233
     96 H         4.518751   2.611681   6.982418 H        1 UNL1     0.0233
     97 H         7.665734   -8.36303   -1.156992 H        1 UNL1     0.0280
     98 H         8.62869   -7.75197   -2.474758 H        1 UNL1     0.0280
     99 H         9.431583   -8.354296   -0.994117 H        1 UNL1     0.0280
     100 H         11.421177   -6.069429   0.298643 H        1 UNL1     0.2922
     101 H         5.056427   0.519309   -3.39365 H        1 UNL1     0.0236
     102 H         6.232567   1.765389   -2.819159 H        1 UNL1     0.0236
     103 H         4.518854   2.002909   -2.669929 H        1 UNL1     0.0236
     104 H         2.416019   2.231308   -0.704296 H        1 UNL1     0.2098
     105 H         1.298654   -0.937506   0.66736 H        1 UNL1     0.0234
     106 H         1.141509   0.821326   0.937382 H        1 UNL1     0.0234
     107 H         -0.0   0.0   0.0 H        1 UNL1     0.0234
     108 H         2.763341   -1.09229   -2.820535 H        1 UNL1     0.2098
     109 H         1.827244   -3.833315   1.208403 H        1 UNL1     0.0234
     110 H         2.209397   -2.355085   0.269467 H        1 UNL1     0.0234
     111 H         0.966199   -2.331047   1.470601 H        1 UNL1     0.0234
     112 H         -3.758781   0.735556   -0.262399 H        1 UNL1     0.0342
     113 H         -3.542343   -0.712784   -1.308201 H        1 UNL1     0.0342
     114 H         -4.147197   -0.884814   0.341807 H        1 UNL1     0.0342
     115 H         -1.517953   -1.472501   -4.162694 H        1 UNL1     0.0234
     116 H         -0.406547   -2.828024   -3.943332 H        1 UNL1     0.0234
     117 H         -2.022548   -2.786891   -3.208148 H        1 UNL1     0.0234
     118 H         3.53653   -6.309523   -0.516804 H        1 UNL1     0.0309
     119 H         5.104744   -6.799213   0.196617 H        1 UNL1     0.0309
     120 H         4.300206   -5.319845   0.672374 H        1 UNL1     0.0309
     121 H         -0.205955   -4.917332   -4.482695 H        1 UNL1     0.0524
     122 H         -0.122169   -5.994106   -3.082555 H        1 UNL1     0.0524
     123 H         -1.363395   -4.717439   -3.139303 H        1 UNL1     0.0524
@<TRIPOS>BOND
     1     1     2    1
     2     1    42    1
     3     2     3    2
     4     3     4    1
     5     4     5    2
     6     5     7    1
     7     6    75    1
     8     6    76    1
     9     6    77    1
    10     7     9   am
    11     9    10    1
    12    10    11    2
    13    10    43    1
    14    11    14    1
    15    11    15    1
    16    12    13   ar
    17    12    27   ar
    18    12    43    1
    19    13    14    1
    20    13    30   ar
    21    14    17    2
    22    15    16    1
    23    16    17    1
    24    16    18    1
    25    16    22    1
    26    18    19    1
    27    19    20    1
    28    20    21    1
    29    21    22    1
    30    23    24    1
    31    23    88    1
    32    23    89    1
    33    24    25    1
    34    24    26    1
    35    24    90    1
    36    25    91    1
    37    25    92    1
    38    25    93    1
    39    26    94    1
    40    26    95    1
    41    26    96    1
    42    27    28   ar
    43    28    29   ar
    44    29    30   ar
    45    29    31    1
    46    30    33    1
    47    31    32    1
    48    32    33    1
    49    32    35    1
    50    34    97    1
    51    34    98    1
    52    34    99    1
    53    35    61    1
    54    36    37    1
    55    36    60    1
    56    37    38    1
    57    38    39    1
    58    39    40    1
    59    40    41    1
    60    41    42    1
    61    45   100    1
    62    47   101    1
    63    47   102    1
    64    47   103    1
    65    48   104    1
    66    49   105    1
    67    49   106    1
    68    49   107    1
    69    50   108    1
    70    51    59    1
    71    52   109    1
    72    52   110    1
    73    52   111    1
    74    53    54    1
    75    54    55    2
    76    54    56    1
    77    56   112    1
    78    56   113    1
    79    56   114    1
    80    57   115    1
    81    57   116    1
    82    57   117    1
    83    58   118    1
    84    58   119    1
    85    58   120    1
    86    59   121    1
    87    59   122    1
    88    59   123    1
    89    60    61    2
    90     1    47    1
    91     1    62    1
    92     2    63    1
    93     3    64    1
    94     4    65    1
    95     5     6    1
    96     7     8    2
    97     9    78    1
    98    15    79    1
    99    18    80    1
   100    18    81    1
   101    19    82    1
   102    19    83    1
   103    20    23    1
   104    21    84    1
   105    21    85    1
   106    22    86    1
   107    22    87    1
   108    27    45    1
   109    28    34    1
   110    32    58    1
   111    33    46    2
   112    36    51    1
   113    36    66    1
   114    37    52    1
   115    37    67    1
   116    38    53    1
   117    38    68    1
   118    42    48    1
   119    42    72    1
   120    43    44    2
   121    60    73    1
   122    61    74    1
   123    39    69    1
   124    39    57    1
   125    40    70    1
   126    40    50    1
   127    41    71    1
   128    41    49    1
