@<TRIPOS>MOLECULE
*****
 123 128 0 0 0
SMALL
GASTEIGER

@<TRIPOS>ATOM
     1 C         1.076857   -1.763254   5.073763 C.3        1 UNL1     0.0009
     2 C         2.390459   -2.317313   6.258881 C.2        1 UNL1     -0.0787
     3 C         3.08768   -3.37812   6.955027 C.2        1 UNL1     -0.0649
     4 C         4.452818   -3.249354   7.94809 C.2        1 UNL1     -0.0542
     5 C         5.540586   -3.951543   8.523215 C.2        1 UNL1     0.0115
     6 C         6.136506   -5.365673   8.76496 C.3        1 UNL1     -0.0348
     7 C         6.793799   -3.119038   9.08302 C.2        1 UNL1     0.2441
     8 O         6.970928   -2.903493   10.274109 O.2        1 UNL1     -0.2702
     9 N         7.809293   -2.878654   8.14114 N.am        1 UNL1     -0.2772
     10 C         7.555967   -1.717523   7.447656 C.2        1 UNL1     0.1049
     11 C         6.723758   -1.818836   6.427172 C.2        1 UNL1     0.0801
     12 C         6.938858   0.686165   7.761973 C.ar        1 UNL1     0.0753
     13 C         5.907796   0.466803   6.793779 C.ar        1 UNL1     0.0305
     14 C         5.85235   -0.758223   5.999242 C.2        1 UNL1     0.0924
     15 N         6.236628   -2.911758   5.815 N.pl3        1 UNL1     -0.3170
     16 C         5.509128   -2.476666   4.652377 C.3        1 UNL1     0.1275
     17 N         5.037718   -1.085809   5.000248 N.2        1 UNL1     -0.2557
     18 C         6.520387   -2.310733   3.522102 C.3        1 UNL1     0.0016
     19 C         7.266885   -3.622793   3.340911 C.3        1 UNL1     0.0026
     20 N         6.303389   -4.6704   3.032329 N.3        1 UNL1     -0.3018
     21 C         5.252619   -4.863313   4.033846 C.3        1 UNL1     0.0026
     22 C         4.512691   -3.534429   4.196528 C.3        1 UNL1     0.0016
     23 C         6.927504   -5.886252   2.549805 C.3        1 UNL1     0.0012
     24 C         7.506392   -5.672586   1.142328 C.3        1 UNL1     -0.0339
     25 C         7.402311   -6.949161   0.291692 C.3        1 UNL1     -0.0615
     26 C         6.820763   -4.495656   0.47037 C.3        1 UNL1     -0.0615
     27 C         7.056091   1.903734   8.428232 C.ar        1 UNL1     0.1347
     28 C         6.228939   2.98516   8.182496 C.ar        1 UNL1     0.0342
     29 C         5.191046   2.730092   7.261147 C.ar        1 UNL1     0.1435
     30 C         5.039236   1.503798   6.612783 C.ar        1 UNL1     0.0774
     31 O         4.370178   3.714339   6.834018 O.3        1 UNL1     -0.4436
     32 C         3.804131   3.210835   5.614613 C.3        1 UNL1     0.3143
     33 C         3.918825   1.703359   5.71745 C.2        1 UNL1     0.2504
     34 C         6.447604   4.39085   8.668626 C.3        1 UNL1     -0.0327
     35 O         2.4062   3.525045   5.632305 O.2        1 UNL1     -0.4528
     36 C         1.392939   3.967207   2.001068 C.3        1 UNL1     0.0854
     37 C         1.522153   2.953103   0.80006 C.3        1 UNL1     0.0236
     38 C         0.152766   2.647021   0.023635 C.3        1 UNL1     0.1131
     39 C         -1.135411   2.226476   0.83973 C.3        1 UNL1     0.0200
     40 C         -1.023593   1.121936   2.084691 C.3        1 UNL1     0.0661
     41 C         -0.256357   -0.38898   2.006633 C.3        1 UNL1     0.0091
     42 C         0.630774   -1.341352   3.299455 C.3        1 UNL1     0.0661
     43 C         7.934066   -0.395195   7.968082 C.2        1 UNL1     0.2131
     44 O         9.041977   -0.209644   8.438019 O.2        1 UNL1     -0.2851
     45 O         8.058902   2.019618   9.388638 O.3        1 UNL1     -0.5056
     46 O         3.227151   0.857687   5.195647 O.2        1 UNL1     -0.2836
     47 C         -0.324031   -1.866413   5.734711 C.3        1 UNL1     -0.0566
     48 O         -0.061902   -2.617007   2.996103 O.3        1 UNL1     -0.3909
     49 C         0.596129   -0.439494   0.75835 C.3        1 UNL1     -0.0577
     50 O         -0.697755   1.767112   3.29931 O.3        1 UNL1     -0.3910
     51 O         0.080036   4.34098   2.353217 O.3        1 UNL1     -0.3753
     52 C         2.579856   1.83877   1.090712 C.3        1 UNL1     -0.0564
     53 O         0.352048   1.974615   -1.303197 O.3        1 UNL1     -0.4608
     54 C         -0.625553   1.350592   -2.033142 C.2        1 UNL1     0.3042
     55 O         -0.822697   0.140538   -2.13679 O.2        1 UNL1     -0.2512
     56 C         -1.565203   2.302269   -2.717307 C.3        1 UNL1     0.0332
     57 C         -1.999622   3.548529   1.091699 C.3        1 UNL1     -0.0567
     58 C         4.720485   3.703988   4.470662 C.3        1 UNL1     0.0210
     59 C         -0.278144   5.676234   2.000129 C.3        1 UNL1     0.0372
     60 C         2.070261   3.544104   3.257005 C.2        1 UNL1     -0.0208
     61 C         1.646799   3.578097   4.521232 C.2        1 UNL1     0.0882
     62 H         1.413607   -0.729006   5.213907 H        1 UNL1     0.0365
     63 H         2.772646   -1.354331   6.603947 H        1 UNL1     0.0576
     64 H         2.872762   -4.430586   6.756954 H        1 UNL1     0.0615
     65 H         4.530128   -2.177013   8.147064 H        1 UNL1     0.0622
     66 H         1.92413   4.867235   1.660726 H        1 UNL1     0.0645
     67 H         2.087409   3.513768   0.035403 H        1 UNL1     0.0362
     68 H         -0.065268   3.652294   -0.368041 H        1 UNL1     0.0741
     69 H         -1.835786   1.752878   0.164757 H        1 UNL1     0.0359
     70 H         -2.090688   0.849133   2.193989 H        1 UNL1     0.0600
     71 H         -1.112978   -1.02567   1.710348 H        1 UNL1     0.0348
     72 H         0.003854   -0.613875   3.835238 H        1 UNL1     0.0602
     73 H         3.078639   3.290925   3.041779 H        1 UNL1     0.0628
     74 H         0.616273   3.770844   4.821401 H        1 UNL1     0.1022
     75 H         5.519323   -6.143704   8.254287 H        1 UNL1     0.0279
     76 H         7.128608   -5.549946   8.358948 H        1 UNL1     0.0279
     77 H         6.062163   -5.684686   9.814915 H        1 UNL1     0.0279
     78 H         7.836109   -3.6394   7.4654 H        1 UNL1     0.1553
     79 H         6.652111   -3.822309   5.887137 H        1 UNL1     0.1484
     80 H         5.989476   -2.022285   2.606844 H        1 UNL1     0.0317
     81 H         7.225482   -1.502341   3.74345 H        1 UNL1     0.0317
     82 H         7.859897   -3.880076   4.230886 H        1 UNL1     0.0428
     83 H         7.983918   -3.481693   2.531588 H        1 UNL1     0.0428
     84 H         4.49755   -5.599538   3.741177 H        1 UNL1     0.0428
     85 H         5.655042   -5.25488   4.978329 H        1 UNL1     0.0428
     86 H         3.67309   -3.746448   4.832221 H        1 UNL1     0.0317
     87 H         4.045614   -3.246889   3.246656 H        1 UNL1     0.0317
     88 H         7.749852   -6.141545   3.23088 H        1 UNL1     0.0429
     89 H         6.224061   -6.728697   2.56496 H        1 UNL1     0.0429
     90 H         8.563664   -5.394753   1.227168 H        1 UNL1     0.0308
     91 H         7.300575   -7.838825   0.920381 H        1 UNL1     0.0233
     92 H         6.549542   -6.89146   -0.388796 H        1 UNL1     0.0233
     93 H         8.286422   -7.104341   -0.338468 H        1 UNL1     0.0233
     94 H         5.835162   -4.795091   0.097859 H        1 UNL1     0.0233
     95 H         6.676989   -3.685774   1.191052 H        1 UNL1     0.0233
     96 H         7.408508   -4.118904   -0.371404 H        1 UNL1     0.0233
     97 H         6.513907   5.099835   7.848763 H        1 UNL1     0.0280
     98 H         5.623787   4.741963   9.303686 H        1 UNL1     0.0280
     99 H         7.38596   4.440262   9.244942 H        1 UNL1     0.0280
     100 H         8.0881   1.314544   10.011246 H        1 UNL1     0.2922
     101 H         -0.865558   -0.930836   5.596515 H        1 UNL1     0.0236
     102 H         -0.28305   -2.164421   6.781848 H        1 UNL1     0.0236
     103 H         -0.955513   -2.629532   5.249869 H        1 UNL1     0.0236
     104 H         -0.872656   -2.649164   3.540726 H        1 UNL1     0.2098
     105 H         1.521997   0.126476   0.8236 H        1 UNL1     0.0234
     106 H         0.792627   -1.443108   0.381423 H        1 UNL1     0.0234
     107 H         0.0   0.0   -0.0 H        1 UNL1     0.0234
     108 H         0.242574   2.025656   3.2473 H        1 UNL1     0.2098
     109 H         3.608924   2.222898   1.056413 H        1 UNL1     0.0234
     110 H         2.412356   1.324252   2.043055 H        1 UNL1     0.0234
     111 H         2.537352   1.035518   0.343098 H        1 UNL1     0.0234
     112 H         -1.749259   1.970213   -3.743566 H        1 UNL1     0.0342
     113 H         -2.499863   2.418779   -2.170791 H        1 UNL1     0.0342
     114 H         -1.081723   3.287789   -2.76381 H        1 UNL1     0.0342
     115 H         -2.192585   4.094446   0.157928 H        1 UNL1     0.0234
     116 H         -2.963843   3.364235   1.569572 H        1 UNL1     0.0234
     117 H         -1.468482   4.3156   1.681135 H        1 UNL1     0.0234
     118 H         4.227134   4.467631   3.844195 H        1 UNL1     0.0309
     119 H         5.67826   4.096799   4.826426 H        1 UNL1     0.0309
     120 H         4.964829   2.910439   3.756041 H        1 UNL1     0.0309
     121 H         0.021459   6.326188   2.821807 H        1 UNL1     0.0524
     122 H         0.245196   6.024054   1.093943 H        1 UNL1     0.0524
     123 H         -1.349872   5.74738   1.837551 H        1 UNL1     0.0524
@<TRIPOS>BOND
     1     1     2    1
     2     1    42    1
     3     2     3    2
     4     3     4    1
     5     4     5    2
     6     5     7    1
     7     6    75    1
     8     6    76    1
     9     6    77    1
    10     7     9   am
    11     9    10    1
    12    10    11    2
    13    10    43    1
    14    11    14    1
    15    11    15    1
    16    12    13   ar
    17    12    27   ar
    18    12    43    1
    19    13    14    1
    20    13    30   ar
    21    14    17    2
    22    15    16    1
    23    16    17    1
    24    16    18    1
    25    16    22    1
    26    18    19    1
    27    19    20    1
    28    20    21    1
    29    21    22    1
    30    23    24    1
    31    23    88    1
    32    23    89    1
    33    24    25    1
    34    24    26    1
    35    24    90    1
    36    25    91    1
    37    25    92    1
    38    25    93    1
    39    26    94    1
    40    26    95    1
    41    26    96    1
    42    27    28   ar
    43    28    29   ar
    44    29    30   ar
    45    29    31    1
    46    30    33    1
    47    31    32    1
    48    32    33    1
    49    32    35    1
    50    34    97    1
    51    34    98    1
    52    34    99    1
    53    35    61    1
    54    36    37    1
    55    36    60    1
    56    37    38    1
    57    38    39    1
    58    39    40    1
    59    40    41    1
    60    41    42    1
    61    45   100    1
    62    47   101    1
    63    47   102    1
    64    47   103    1
    65    48   104    1
    66    49   105    1
    67    49   106    1
    68    49   107    1
    69    50   108    1
    70    51    59    1
    71    52   109    1
    72    52   110    1
    73    52   111    1
    74    53    54    1
    75    54    55    2
    76    54    56    1
    77    56   112    1
    78    56   113    1
    79    56   114    1
    80    57   115    1
    81    57   116    1
    82    57   117    1
    83    58   118    1
    84    58   119    1
    85    58   120    1
    86    59   121    1
    87    59   122    1
    88    59   123    1
    89    60    61    2
    90     1    47    1
    91     1    62    1
    92     2    63    1
    93     3    64    1
    94     4    65    1
    95     5     6    1
    96     7     8    2
    97     9    78    1
    98    15    79    1
    99    18    80    1
   100    18    81    1
   101    19    82    1
   102    19    83    1
   103    20    23    1
   104    21    84    1
   105    21    85    1
   106    22    86    1
   107    22    87    1
   108    27    45    1
   109    28    34    1
   110    32    58    1
   111    33    46    2
   112    36    51    1
   113    36    66    1
   114    37    52    1
   115    37    67    1
   116    38    53    1
   117    38    68    1
   118    42    48    1
   119    42    72    1
   120    43    44    2
   121    60    73    1
   122    61    74    1
   123    39    69    1
   124    39    57    1
   125    40    70    1
   126    40    50    1
   127    41    71    1
   128    41    49    1
