@<TRIPOS>MOLECULE
*****
 123 128 0 0 0
SMALL
GASTEIGER

@<TRIPOS>ATOM
     1 C         4.369487   2.455329   -1.585746 C.3        1 UNL1     0.0009
     2 C         5.541006   2.4931   -3.022114 C.2        1 UNL1     -0.0787
     3 C         6.858923   2.260726   -3.574512 C.2        1 UNL1     -0.0649
     4 C         7.348929   2.39566   -5.189456 C.2        1 UNL1     -0.0542
     5 C         8.327753   2.017396   -6.141243 C.2        1 UNL1     0.0115
     6 C         9.717473   1.345325   -6.315369 C.3        1 UNL1     -0.0348
     7 C         7.985453   2.153527   -7.703705 C.2        1 UNL1     0.2441
     8 O         8.404488   3.068321   -8.399469 O.2        1 UNL1     -0.2702
     9 N         7.390643   1.016421   -8.27759 N.am        1 UNL1     -0.2772
     10 C         6.022544   1.06912   -8.140298 C.2        1 UNL1     0.1049
     11 C         5.53748   0.657994   -6.982752 C.2        1 UNL1     0.0801
     12 C         4.051784   2.572715   -8.475918 C.ar        1 UNL1     0.0753
     13 C         3.678947   2.254287   -7.131223 C.ar        1 UNL1     0.0305
     14 C         4.339063   1.183869   -6.387245 C.2        1 UNL1     0.0924
     15 N         6.139682   -0.004089   -5.979993 N.pl3        1 UNL1     -0.3170
     16 C         5.128674   -0.364207   -5.021644 C.3        1 UNL1     0.1275
     17 N         4.061661   0.690774   -5.183571 N.2        1 UNL1     -0.2557
     18 C         4.504359   -1.673883   -5.493536 C.3        1 UNL1     0.0016
     19 C         5.607832   -2.706467   -5.659989 C.3        1 UNL1     0.0026
     20 N         6.28378   -2.878945   -4.381563 N.3        1 UNL1     -0.3018
     21 C         6.864362   -1.659457   -3.81575 C.3        1 UNL1     0.0026
     22 C         5.737677   -0.637738   -3.65276 C.3        1 UNL1     0.0016
     23 C         7.144782   -4.044458   -4.351616 C.3        1 UNL1     0.0012
     24 C         6.307284   -5.333002   -4.354285 C.3        1 UNL1     -0.0339
     25 C         7.200641   -6.58437   -4.34733 C.3        1 UNL1     -0.0615
     26 C         5.341719   -5.32897   -3.181916 C.3        1 UNL1     -0.0615
     27 C         3.339334   3.510507   -9.219611 C.ar        1 UNL1     0.1347
     28 C         2.216885   4.162926   -8.741585 C.ar        1 UNL1     0.0342
     29 C         1.897628   3.869836   -7.398701 C.ar        1 UNL1     0.1435
     30 C         2.62376   2.959625   -6.629632 C.ar        1 UNL1     0.0774
     31 O         0.769632   4.340814   -6.823539 O.3        1 UNL1     -0.4436
     32 C         0.554602   3.484066   -5.691895 C.3        1 UNL1     0.3143
     33 C         1.917872   2.908096   -5.366369 C.2        1 UNL1     0.2504
     34 C         1.260442   4.985939   -9.558876 C.3        1 UNL1     -0.0327
     35 O         0.180851   4.319959   -4.589695 O.2        1 UNL1     -0.4528
     36 C         -2.084465   2.203276   -2.399699 C.3        1 UNL1     0.0854
     37 C         -1.793814   0.8112   -1.717666 C.3        1 UNL1     0.0236
     38 C         -2.023331   0.774962   -0.130923 C.3        1 UNL1     0.1131
     39 C         -1.356864   1.879771   0.784221 C.3        1 UNL1     0.0200
     40 C         0.224863   2.345031   0.531017 C.3        1 UNL1     0.0661
     41 C         1.553079   1.302678   0.366846 C.3        1 UNL1     0.0091
     42 C         3.088545   1.47826   -0.621546 C.3        1 UNL1     0.0661
     43 C         5.167837   1.805925   -9.083139 C.2        1 UNL1     0.2131
     44 O         5.328645   1.688702   -10.284445 O.2        1 UNL1     -0.2851
     45 O         3.795514   3.795987   -10.50485 O.3        1 UNL1     -0.5056
     46 O         2.334976   2.51579   -4.29961 O.2        1 UNL1     -0.2836
     47 C         4.67563   3.622747   -0.609327 C.3        1 UNL1     -0.0566
     48 O         3.985709   1.084203   0.491527 O.3        1 UNL1     -0.3909
     49 C         1.044687   -0.104541   0.146014 C.3        1 UNL1     -0.0577
     50 O         0.29599   3.374164   -0.435186 O.3        1 UNL1     -0.3910
     51 O         -2.33692   3.278051   -1.523025 O.3        1 UNL1     -0.3753
     52 C         -0.602329   0.06528   -2.402441 C.3        1 UNL1     -0.0564
     53 O         -2.084961   -0.613484   0.435421 O.3        1 UNL1     -0.4608
     54 C         -1.571799   -1.00226   1.645152 C.2        1 UNL1     0.3042
     55 O         -0.485012   -0.690403   2.130412 O.2        1 UNL1     -0.2512
     56 C         -2.508387   -1.859298   2.448273 C.3        1 UNL1     0.0332
     57 C         -2.443178   3.029596   1.020862 C.3        1 UNL1     -0.0567
     58 C         -0.366893   2.341012   -6.177491 C.3        1 UNL1     0.0210
     59 C         -3.694869   3.714407   -1.485163 C.3        1 UNL1     0.0372
     60 C         -1.041477   2.665087   -3.355767 C.2        1 UNL1     -0.0208
     61 C         -0.476847   3.863935   -3.50643 C.2        1 UNL1     0.0882
     62 H         3.571738   2.805505   -2.251843 H        1 UNL1     0.0365
     63 H         4.9102   2.950216   -3.787358 H        1 UNL1     0.0576
     64 H         7.653329   1.797893   -2.984755 H        1 UNL1     0.0615
     65 H         6.526872   2.935743   -5.666965 H        1 UNL1     0.0622
     66 H         -2.989294   2.03298   -2.999974 H        1 UNL1     0.0645
     67 H         -2.613231   0.162372   -2.072825 H        1 UNL1     0.0362
     68 H         -3.104069   0.980757   -0.096642 H        1 UNL1     0.0741
     69 H         -1.338125   1.521385   1.804818 H        1 UNL1     0.0359
     70 H         0.430274   2.853555   1.492407 H        1 UNL1     0.0600
     71 H         1.888399   1.249337   1.421205 H        1 UNL1     0.0348
     72 H         2.675929   2.492486   -0.519523 H        1 UNL1     0.0602
     73 H         -0.849457   1.895613   -4.061661 H        1 UNL1     0.0628
     74 H         -0.576216   4.685936   -2.796728 H        1 UNL1     0.1022
     75 H         10.448126   1.759335   -5.579315 H        1 UNL1     0.0279
     76 H         9.767511   0.276618   -6.119328 H        1 UNL1     0.0279
     77 H         10.199329   1.605825   -7.269128 H        1 UNL1     0.0279
     78 H         7.714922   0.180644   -7.795514 H        1 UNL1     0.1553
     79 H         6.995574   -0.517039   -6.086127 H        1 UNL1     0.1484
     80 H         3.758516   -1.999691   -4.758462 H        1 UNL1     0.0317
     81 H         3.971388   -1.534551   -6.440204 H        1 UNL1     0.0317
     82 H         6.319111   -2.418769   -6.448168 H        1 UNL1     0.0428
     83 H         5.140972   -3.63188   -5.998666 H        1 UNL1     0.0428
     84 H         7.295576   -1.800172   -2.819725 H        1 UNL1     0.0428
     85 H         7.703657   -1.287916   -4.419783 H        1 UNL1     0.0428
     86 H         6.16992   0.186935   -3.116972 H        1 UNL1     0.0317
     87 H         4.980501   -1.022431   -2.958648 H        1 UNL1     0.0317
     88 H         7.76883   -4.031368   -5.25477 H        1 UNL1     0.0429
     89 H         7.82473   -4.015905   -3.490437 H        1 UNL1     0.0429
     90 H         5.683652   -5.354189   -5.255866 H        1 UNL1     0.0308
     91 H         8.002479   -6.496512   -3.608115 H        1 UNL1     0.0233
     92 H         6.611086   -7.478698   -4.132359 H        1 UNL1     0.0233
     93 H         7.680443   -6.760363   -5.317717 H        1 UNL1     0.0233
     94 H         5.84037   -5.701626   -2.280633 H        1 UNL1     0.0233
     95 H         5.001397   -4.309144   -2.981667 H        1 UNL1     0.0233
     96 H         4.470367   -5.959291   -3.38043 H        1 UNL1     0.0233
     97 H         0.245816   4.602407   -9.507206 H        1 UNL1     0.0280
     98 H         1.20683   6.025623   -9.210396 H        1 UNL1     0.0280
     99 H         1.57829   4.98129   -10.61436 H        1 UNL1     0.0280
     100 H         4.71641   3.981434   -10.561255 H        1 UNL1     0.2922
     101 H         3.925852   4.405108   -0.725094 H        1 UNL1     0.0236
     102 H         5.689229   4.009778   -0.708359 H        1 UNL1     0.0236
     103 H         4.595298   3.312052   0.44576 H        1 UNL1     0.0236
     104 H         3.422604   0.794424   1.23578 H        1 UNL1     0.2098
     105 H         1.455511   -0.597988   -0.731223 H        1 UNL1     0.0234
     106 H         1.118535   -0.757139   1.015836 H        1 UNL1     0.0234
     107 H         -0.0   0.0   0.0 H        1 UNL1     0.0234
     108 H         0.19601   4.223035   0.037242 H        1 UNL1     0.2098
     109 H         -0.799238   -0.148237   -3.462322 H        1 UNL1     0.0234
     110 H         0.350453   0.597046   -2.306655 H        1 UNL1     0.0234
     111 H         -0.411653   -0.909172   -1.933365 H        1 UNL1     0.0234
     112 H         -2.047964   -2.116296   3.407079 H        1 UNL1     0.0342
     113 H         -3.476141   -1.382055   2.59502 H        1 UNL1     0.0342
     114 H         -2.6783   -2.793307   1.895171 H        1 UNL1     0.0342
     115 H         -2.353707   3.476466   2.020607 H        1 UNL1     0.0234
     116 H         -2.395776   3.841766   0.292726 H        1 UNL1     0.0234
     117 H         -3.481143   2.655564   1.046749 H        1 UNL1     0.0234
     118 H         -1.377164   2.407457   -5.737098 H        1 UNL1     0.0309
     119 H         -0.453842   2.29296   -7.267598 H        1 UNL1     0.0309
     120 H         -0.016301   1.353711   -5.857447 H        1 UNL1     0.0309
     121 H         -3.853517   4.215945   -0.530884 H        1 UNL1     0.0524
     122 H         -3.9236   4.439883   -2.283538 H        1 UNL1     0.0524
     123 H         -4.365388   2.864785   -1.57811 H        1 UNL1     0.0524
@<TRIPOS>BOND
     1     1     2    1
     2     1    42    1
     3     2     3    2
     4     3     4    1
     5     4     5    2
     6     5     7    1
     7     6    75    1
     8     6    76    1
     9     6    77    1
    10     7     9   am
    11     9    10    1
    12    10    11    2
    13    10    43    1
    14    11    14    1
    15    11    15    1
    16    12    13   ar
    17    12    27   ar
    18    12    43    1
    19    13    14    1
    20    13    30   ar
    21    14    17    2
    22    15    16    1
    23    16    17    1
    24    16    18    1
    25    16    22    1
    26    18    19    1
    27    19    20    1
    28    20    21    1
    29    21    22    1
    30    23    24    1
    31    23    88    1
    32    23    89    1
    33    24    25    1
    34    24    26    1
    35    24    90    1
    36    25    91    1
    37    25    92    1
    38    25    93    1
    39    26    94    1
    40    26    95    1
    41    26    96    1
    42    27    28   ar
    43    28    29   ar
    44    29    30   ar
    45    29    31    1
    46    30    33    1
    47    31    32    1
    48    32    33    1
    49    32    35    1
    50    34    97    1
    51    34    98    1
    52    34    99    1
    53    35    61    1
    54    36    37    1
    55    36    60    1
    56    37    38    1
    57    38    39    1
    58    39    40    1
    59    40    41    1
    60    41    42    1
    61    45   100    1
    62    47   101    1
    63    47   102    1
    64    47   103    1
    65    48   104    1
    66    49   105    1
    67    49   106    1
    68    49   107    1
    69    50   108    1
    70    51    59    1
    71    52   109    1
    72    52   110    1
    73    52   111    1
    74    53    54    1
    75    54    55    2
    76    54    56    1
    77    56   112    1
    78    56   113    1
    79    56   114    1
    80    57   115    1
    81    57   116    1
    82    57   117    1
    83    58   118    1
    84    58   119    1
    85    58   120    1
    86    59   121    1
    87    59   122    1
    88    59   123    1
    89    60    61    2
    90     1    47    1
    91     1    62    1
    92     2    63    1
    93     3    64    1
    94     4    65    1
    95     5     6    1
    96     7     8    2
    97     9    78    1
    98    15    79    1
    99    18    80    1
   100    18    81    1
   101    19    82    1
   102    19    83    1
   103    20    23    1
   104    21    84    1
   105    21    85    1
   106    22    86    1
   107    22    87    1
   108    27    45    1
   109    28    34    1
   110    32    58    1
   111    33    46    2
   112    36    51    1
   113    36    66    1
   114    37    52    1
   115    37    67    1
   116    38    53    1
   117    38    68    1
   118    42    48    1
   119    42    72    1
   120    43    44    2
   121    60    73    1
   122    61    74    1
   123    39    69    1
   124    39    57    1
   125    40    70    1
   126    40    50    1
   127    41    71    1
   128    41    49    1
