@<TRIPOS>MOLECULE
*****
 123 128 0 0 0
SMALL
GASTEIGER

@<TRIPOS>ATOM
     1 C         4.88085   0.221307   1.080417 C.3        1 UNL1     0.0009
     2 C         6.235844   -1.003337   1.398658 C.2        1 UNL1     -0.0787
     3 C         7.216427   -1.588599   2.288585 C.2        1 UNL1     -0.0649
     4 C         8.213676   -2.926554   2.0027 C.2        1 UNL1     -0.0542
     5 C         9.00605   -3.934059   2.606152 C.2        1 UNL1     0.0115
     6 C         9.633351   -4.404418   3.947263 C.3        1 UNL1     -0.0348
     7 C         9.398797   -5.232073   1.747142 C.2        1 UNL1     0.2441
     8 O         10.502398   -5.387231   1.242646 O.2        1 UNL1     -0.2702
     9 N         8.481555   -6.293989   1.831722 N.am        1 UNL1     -0.2772
     10 C         7.501171   -6.159002   0.875716 C.2        1 UNL1     0.1049
     11 C         6.498462   -5.35505   1.179785 C.2        1 UNL1     0.0801
     12 C         7.155671   -5.730119   -1.564371 C.ar        1 UNL1     0.0753
     13 C         6.223235   -4.716747   -1.174181 C.ar        1 UNL1     0.0305
     14 C         5.767624   -4.587505   0.208124 C.2        1 UNL1     0.0924
     15 N         6.162265   -4.80062   2.357115 N.pl3        1 UNL1     -0.3170
     16 C         4.890331   -4.149371   2.188852 C.3        1 UNL1     0.1275
     17 N         4.844604   -3.781901   0.725774 N.2        1 UNL1     -0.2557
     18 C         3.810132   -5.207143   2.393772 C.3        1 UNL1     0.0016
     19 C         4.010997   -5.849626   3.757025 C.3        1 UNL1     0.0026
     20 N         3.931116   -4.814462   4.778339 N.3        1 UNL1     -0.3018
     21 C         4.891886   -3.719333   4.630067 C.3        1 UNL1     0.0026
     22 C         4.669189   -3.085371   3.255879 C.3        1 UNL1     0.0016
     23 C         3.810044   -5.352718   6.118587 C.3        1 UNL1     0.0012
     24 C         2.504162   -6.149966   6.262902 C.3        1 UNL1     -0.0339
     25 C         2.189119   -6.948825   4.987509 C.3        1 UNL1     -0.0615
     26 C         2.576296   -7.05106   7.483396 C.3        1 UNL1     -0.0615
     27 C         7.492641   -5.924488   -2.901827 C.ar        1 UNL1     0.1347
     28 C         6.934636   -5.196779   -3.937743 C.ar        1 UNL1     0.0342
     29 C         6.056209   -4.17216   -3.525812 C.ar        1 UNL1     0.1435
     30 C         5.736928   -3.942053   -2.187033 C.ar        1 UNL1     0.0774
     31 O         5.348387   -3.448702   -4.420576 O.3        1 UNL1     -0.4436
     32 C         4.270833   -2.883563   -3.658757 C.3        1 UNL1     0.3143
     33 C         4.762685   -2.871475   -2.225527 C.2        1 UNL1     0.2504
     34 C         7.054856   -5.513412   -5.402458 C.3        1 UNL1     -0.0327
     35 O         4.133774   -1.516096   -4.064342 O.2        1 UNL1     -0.4528
     36 C         0.462459   -0.661332   -3.618341 C.3        1 UNL1     0.0854
     37 C         -0.429818   -0.746509   -2.320609 C.3        1 UNL1     0.0236
     38 C         -1.172738   0.617214   -1.920515 C.3        1 UNL1     0.1131
     39 C         -0.345044   1.961351   -1.818097 C.3        1 UNL1     0.0200
     40 C         1.145627   1.980705   -1.06979 C.3        1 UNL1     0.0661
     41 C         1.498112   1.337152   0.459656 C.3        1 UNL1     0.0091
     42 C         3.036752   0.573341   1.103535 C.3        1 UNL1     0.0661
     43 C         7.684257   -6.626533   -0.506401 C.2        1 UNL1     0.2131
     44 O         8.148525   -7.72996   -0.729204 O.2        1 UNL1     -0.2851
     45 O         8.442608   -6.901531   -3.19232 O.3        1 UNL1     -0.5056
     46 O         4.43954   -2.130514   -1.32419 O.2        1 UNL1     -0.2836
     47 C         5.471488   1.646762   0.909522 C.3        1 UNL1     -0.0566
     48 O         3.034649   1.357508   2.362183 O.3        1 UNL1     -0.3909
     49 C         0.35117   0.451347   0.892516 C.3        1 UNL1     -0.0577
     50 O         2.169593   1.643132   -1.983717 O.3        1 UNL1     -0.3910
     51 O         0.637395   0.627492   -4.162178 O.3        1 UNL1     -0.3753
     52 C         0.192106   -1.699725   -1.248444 C.3        1 UNL1     -0.0564
     53 O         -2.270388   0.430257   -0.914266 O.3        1 UNL1     -0.4608
     54 C         -2.106399   0.406309   0.446051 C.2        1 UNL1     0.3042
     55 O         -2.978969   0.259906   1.301053 O.2        1 UNL1     -0.2512
     56 C         -0.673114   0.520847   0.881124 C.3        1 UNL1     0.0332
     57 C         -0.486355   2.722587   -3.217641 C.3        1 UNL1     -0.0567
     58 C         3.088531   -3.873938   -3.772114 C.3        1 UNL1     0.0210
     59 C         0.338203   0.73686   -5.553001 C.3        1 UNL1     0.0372
     60 C         1.81874   -1.260529   -3.489392 C.2        1 UNL1     -0.0208
     61 C         3.007881   -0.80022   -3.880291 C.2        1 UNL1     0.0882
     62 H         4.768613   -0.193943   0.071615 H        1 UNL1     0.0365
     63 H         6.342047   -1.451346   0.408467 H        1 UNL1     0.0576
     64 H         7.283839   -1.295115   3.338552 H        1 UNL1     0.0615
     65 H         8.134796   -3.084555   0.923674 H        1 UNL1     0.0622
     66 H         -0.068859   -1.275002   -4.359392 H        1 UNL1     0.0645
     67 H         -1.28184   -1.380273   -2.62221 H        1 UNL1     0.0362
     68 H         -1.820013   0.73961   -2.802318 H        1 UNL1     0.0741
     69 H         -0.911888   2.675626   -1.235939 H        1 UNL1     0.0359
     70 H         1.264918   3.069496   -0.910528 H        1 UNL1     0.0600
     71 H         1.330351   2.232733   1.089536 H        1 UNL1     0.0348
     72 H         3.334314   1.155972   0.219615 H        1 UNL1     0.0602
     73 H         1.729003   -2.251376   -3.118692 H        1 UNL1     0.0628
     74 H         3.193929   0.220392   -4.216409 H        1 UNL1     0.1022
     75 H         10.692328   -4.723948   3.793958 H        1 UNL1     0.0279
     76 H         9.72595   -3.653951   4.729116 H        1 UNL1     0.0279
     77 H         9.17985   -5.331797   4.326744 H        1 UNL1     0.0279
     78 H         8.025871   -6.280691   2.741806 H        1 UNL1     0.1553
     79 H         6.487244   -5.137857   3.24458 H        1 UNL1     0.1484
     80 H         2.824886   -4.731687   2.316327 H        1 UNL1     0.0317
     81 H         3.853567   -5.968237   1.607323 H        1 UNL1     0.0317
     82 H         4.967117   -6.39031   3.815391 H        1 UNL1     0.0428
     83 H         3.231444   -6.60181   3.881794 H        1 UNL1     0.0428
     84 H         4.758482   -2.916673   5.362017 H        1 UNL1     0.0428
     85 H         5.92502   -4.057432   4.790194 H        1 UNL1     0.0428
     86 H         5.292903   -2.210974   3.235886 H        1 UNL1     0.0317
     87 H         3.654128   -2.674558   3.192792 H        1 UNL1     0.0317
     88 H         4.65509   -6.031905   6.291494 H        1 UNL1     0.0429
     89 H         3.875221   -4.55937   6.874314 H        1 UNL1     0.0429
     90 H         1.677874   -5.454589   6.452407 H        1 UNL1     0.0308
     91 H         3.097674   -7.371884   4.548589 H        1 UNL1     0.0233
     92 H         1.484701   -7.756065   5.201442 H        1 UNL1     0.0233
     93 H         1.719626   -6.330597   4.21278 H        1 UNL1     0.0233
     94 H         3.578964   -7.482289   7.575776 H        1 UNL1     0.0233
     95 H         2.373974   -6.471316   8.388341 H        1 UNL1     0.0233
     96 H         1.85302   -7.868796   7.418986 H        1 UNL1     0.0233
     97 H         7.559028   -4.72282   -5.950186 H        1 UNL1     0.0280
     98 H         7.640674   -6.424324   -5.582211 H        1 UNL1     0.0280
     99 H         6.049718   -5.646686   -5.834929 H        1 UNL1     0.0280
     100 H         8.472348   -7.162262   -4.096067 H        1 UNL1     0.2922
     101 H         5.952102   1.95915   1.836388 H        1 UNL1     0.0236
     102 H         4.739449   2.375324   0.562679 H        1 UNL1     0.0236
     103 H         6.2749   1.674374   0.154565 H        1 UNL1     0.0236
     104 H         2.302849   2.002749   2.306474 H        1 UNL1     0.2098
     105 H         0.631857   -0.343383   1.579124 H        1 UNL1     0.0234
     106 H         -0.520135   0.986432   1.269927 H        1 UNL1     0.0234
     107 H         -0.0   0.0   0.0 H        1 UNL1     0.0234
     108 H         2.607917   2.474738   -2.248427 H        1 UNL1     0.2098
     109 H         1.113648   -1.289888   -0.811975 H        1 UNL1     0.0234
     110 H         -0.507742   -1.961526   -0.447559 H        1 UNL1     0.0234
     111 H         0.474028   -2.66816   -1.682726 H        1 UNL1     0.0234
     112 H         -0.223155   1.41902   0.44734 H        1 UNL1     0.0342
     113 H         -0.572816   0.518299   1.965456 H        1 UNL1     0.0342
     114 H         -0.126465   -0.350157   0.494224 H        1 UNL1     0.0342
     115 H         -0.883831   3.739077   -3.091353 H        1 UNL1     0.0234
     116 H         0.448542   2.80259   -3.775867 H        1 UNL1     0.0234
     117 H         -1.244729   2.278654   -3.885274 H        1 UNL1     0.0234
     118 H         2.518671   -3.948929   -2.829436 H        1 UNL1     0.0309
     119 H         2.400684   -3.630262   -4.588012 H        1 UNL1     0.0309
     120 H         3.418103   -4.903326   -3.950577 H        1 UNL1     0.0309
     121 H         -0.580649   1.314805   -5.64812 H        1 UNL1     0.0524
     122 H         1.12582   1.271565   -6.109587 H        1 UNL1     0.0524
     123 H         0.207079   -0.249904   -5.987969 H        1 UNL1     0.0524
@<TRIPOS>BOND
     1     1     2    1
     2     1    42    1
     3     2     3    2
     4     3     4    1
     5     4     5    2
     6     5     7    1
     7     6    75    1
     8     6    76    1
     9     6    77    1
    10     7     9   am
    11     9    10    1
    12    10    11    2
    13    10    43    1
    14    11    14    1
    15    11    15    1
    16    12    13   ar
    17    12    27   ar
    18    12    43    1
    19    13    14    1
    20    13    30   ar
    21    14    17    2
    22    15    16    1
    23    16    17    1
    24    16    18    1
    25    16    22    1
    26    18    19    1
    27    19    20    1
    28    20    21    1
    29    21    22    1
    30    23    24    1
    31    23    88    1
    32    23    89    1
    33    24    25    1
    34    24    26    1
    35    24    90    1
    36    25    91    1
    37    25    92    1
    38    25    93    1
    39    26    94    1
    40    26    95    1
    41    26    96    1
    42    27    28   ar
    43    28    29   ar
    44    29    30   ar
    45    29    31    1
    46    30    33    1
    47    31    32    1
    48    32    33    1
    49    32    35    1
    50    34    97    1
    51    34    98    1
    52    34    99    1
    53    35    61    1
    54    36    37    1
    55    36    60    1
    56    37    38    1
    57    38    39    1
    58    39    40    1
    59    40    41    1
    60    41    42    1
    61    45   100    1
    62    47   101    1
    63    47   102    1
    64    47   103    1
    65    48   104    1
    66    49   105    1
    67    49   106    1
    68    49   107    1
    69    50   108    1
    70    51    59    1
    71    52   109    1
    72    52   110    1
    73    52   111    1
    74    53    54    1
    75    54    55    2
    76    54    56    1
    77    56   112    1
    78    56   113    1
    79    56   114    1
    80    57   115    1
    81    57   116    1
    82    57   117    1
    83    58   118    1
    84    58   119    1
    85    58   120    1
    86    59   121    1
    87    59   122    1
    88    59   123    1
    89    60    61    2
    90     1    47    1
    91     1    62    1
    92     2    63    1
    93     3    64    1
    94     4    65    1
    95     5     6    1
    96     7     8    2
    97     9    78    1
    98    15    79    1
    99    18    80    1
   100    18    81    1
   101    19    82    1
   102    19    83    1
   103    20    23    1
   104    21    84    1
   105    21    85    1
   106    22    86    1
   107    22    87    1
   108    27    45    1
   109    28    34    1
   110    32    58    1
   111    33    46    2
   112    36    51    1
   113    36    66    1
   114    37    52    1
   115    37    67    1
   116    38    53    1
   117    38    68    1
   118    42    48    1
   119    42    72    1
   120    43    44    2
   121    60    73    1
   122    61    74    1
   123    39    69    1
   124    39    57    1
   125    40    70    1
   126    40    50    1
   127    41    71    1
   128    41    49    1
