@<TRIPOS>MOLECULE
*****
 123 128 0 0 0
SMALL
GASTEIGER

@<TRIPOS>ATOM
     1 C         2.656936   -3.604156   -2.785941 C.3        1 UNL1     0.0009
     2 C         2.402719   -4.82484   -4.157925 C.2        1 UNL1     -0.0787
     3 C         2.346144   -6.193287   -4.627181 C.2        1 UNL1     -0.0649
     4 C         1.899217   -6.74919   -6.162624 C.2        1 UNL1     -0.0542
     5 C         1.445905   -7.86654   -6.906341 C.2        1 UNL1     0.0115
     6 C         1.200441   -9.399383   -6.847513 C.3        1 UNL1     -0.0348
     7 C         0.781499   -7.622909   -8.347243 C.2        1 UNL1     0.2441
     8 O         1.379105   -7.816749   -9.396918 O.2        1 UNL1     -0.2702
     9 N         -0.609959   -7.423834   -8.328149 N.am        1 UNL1     -0.2772
     10 C         -0.901973   -6.091147   -8.149276 C.2        1 UNL1     0.1049
     11 C         -0.888312   -5.654493   -6.902934 C.2        1 UNL1     0.0801
     12 C         -0.338787   -3.805988   -8.996745 C.ar        1 UNL1     0.0753
     13 C         -0.132021   -3.435473   -7.629787 C.ar        1 UNL1     0.0305
     14 C         -0.528234   -4.313137   -6.5308 C.2        1 UNL1     0.0924
     15 N         -0.84062   -6.340153   -5.747892 N.pl3        1 UNL1     -0.3170
     16 C         -1.022866   -5.402104   -4.672203 C.3        1 UNL1     0.1275
     17 N         -0.504077   -4.094625   -5.219085 N.2        1 UNL1     -0.2557
     18 C         -2.525445   -5.216078   -4.484185 C.3        1 UNL1     0.0016
     19 C         -3.157727   -6.577679   -4.243661 C.3        1 UNL1     0.0026
     20 N         -2.551345   -7.172614   -3.060706 N.3        1 UNL1     -0.3018
     21 C         -1.097345   -7.335236   -3.122391 C.3        1 UNL1     0.0026
     22 C         -0.48256   -5.95483   -3.359911 C.3        1 UNL1     0.0016
     23 C         -3.281583   -8.325134   -2.571735 C.3        1 UNL1     0.0012
     24 C         -4.623438   -7.892738   -1.960003 C.3        1 UNL1     -0.0339
     25 C         -5.809891   -8.544743   -2.68889 C.3        1 UNL1     -0.0615
     26 C         -4.642004   -8.202757   -0.473287 C.3        1 UNL1     -0.0615
     27 C         -0.070621   -2.916129   -10.034221 C.ar        1 UNL1     0.1347
     28 C         0.368088   -1.620445   -9.827367 C.ar        1 UNL1     0.0342
     29 C         0.611191   -1.29403   -8.47625 C.ar        1 UNL1     0.1435
     30 C         0.381554   -2.187111   -7.428923 C.ar        1 UNL1     0.0774
     31 O         0.936053   -0.037192   -8.102313 O.3        1 UNL1     -0.4436
     32 C         0.637074   0.012404   -6.699093 C.3        1 UNL1     0.3143
     33 C         0.683626   -1.428695   -6.232961 C.2        1 UNL1     0.2504
     34 C         0.435621   -0.535989   -10.866354 C.3        1 UNL1     -0.0327
     35 O         1.721321   0.693999   -6.056373 O.2        1 UNL1     -0.4528
     36 C         0.215669   2.425675   -3.032734 C.3        1 UNL1     0.0854
     37 C         -0.588741   1.804386   -1.826729 C.3        1 UNL1     0.0236
     38 C         0.005524   2.137388   -0.374935 C.3        1 UNL1     0.1131
     39 C         1.53901   1.887336   -0.078015 C.3        1 UNL1     0.0200
     40 C         2.283738   0.489212   -0.600576 C.3        1 UNL1     0.0661
     41 C         1.709305   -1.089689   -0.36668 C.3        1 UNL1     0.0091
     42 C         1.87333   -2.583717   -1.418526 C.3        1 UNL1     0.0661
     43 C         -0.933112   -5.13828   -9.268842 C.2        1 UNL1     0.2131
     44 O         -1.510027   -5.419265   -10.303711 O.2        1 UNL1     -0.2851
     45 O         -0.25537   -3.371006   -11.338212 O.3        1 UNL1     -0.5056
     46 O         0.93538   -1.8556   -5.128322 O.2        1 UNL1     -0.2836
     47 C         4.165979   -3.48735   -2.44079 C.3        1 UNL1     -0.0566
     48 O         2.283005   -3.466093   -0.299287 O.3        1 UNL1     -0.3909
     49 C         0.266683   -1.022585   0.082579 C.3        1 UNL1     -0.0577
     50 O         2.75997   0.639179   -1.92286 O.3        1 UNL1     -0.3910
     51 O         1.440302   3.041881   -2.704108 O.3        1 UNL1     -0.3753
     52 C         -1.177217   0.399923   -2.181874 C.3        1 UNL1     -0.0564
     53 O         -0.94839   1.844617   0.746073 O.3        1 UNL1     -0.4608
     54 C         -0.603446   1.338137   1.971806 C.2        1 UNL1     0.3042
     55 O         -0.740551   0.181153   2.367318 O.2        1 UNL1     -0.2512
     56 C         0.062517   2.340514   2.870943 C.3        1 UNL1     0.0332
     57 C         2.306751   3.271466   -0.308082 C.3        1 UNL1     -0.0567
     58 C         -0.815706   0.528764   -6.579385 C.3        1 UNL1     0.0210
     59 C         1.434755   4.466501   -2.783435 C.3        1 UNL1     0.0372
     60 C         0.494822   1.486253   -4.152876 C.2        1 UNL1     -0.0208
     61 C         1.614283   1.276956   -4.846956 C.2        1 UNL1     0.0882
     62 H         2.433556   -2.79431   -3.490897 H        1 UNL1     0.0365
     63 H         2.275642   -4.15173   -5.008363 H        1 UNL1     0.0576
     64 H         2.439296   -7.038034   -3.941008 H        1 UNL1     0.0615
     65 H         1.912793   -5.847221   -6.780483 H        1 UNL1     0.0622
     66 H         -0.453503   3.19454   -3.443953 H        1 UNL1     0.0645
     67 H         -1.533989   2.374367   -1.81298 H        1 UNL1     0.0362
     68 H         -0.117624   3.231165   -0.372223 H        1 UNL1     0.0741
     69 H         1.684012   1.847046   0.993321 H        1 UNL1     0.0359
     70 H         3.195653   0.513177   0.026239 H        1 UNL1     0.0600
     71 H         2.220727   -1.342777   0.582715 H        1 UNL1     0.0348
     72 H         2.662239   -1.892354   -1.74861 H        1 UNL1     0.0602
     73 H         -0.412781   1.028193   -4.458959 H        1 UNL1     0.0628
     74 H         2.595168   1.661783   -4.565868 H        1 UNL1     0.1022
     75 H         2.085928   -9.921746   -6.411527 H        1 UNL1     0.0279
     76 H         0.389898   -9.736608   -6.205353 H        1 UNL1     0.0279
     77 H         1.146357   -9.85999   -7.844818 H        1 UNL1     0.0279
     78 H         -1.017829   -7.934247   -7.547637 H        1 UNL1     0.1553
     79 H         -1.075692   -7.312346   -5.667181 H        1 UNL1     0.1484
     80 H         -2.69889   -4.539013   -3.639043 H        1 UNL1     0.0317
     81 H         -2.97398   -4.741236   -5.363385 H        1 UNL1     0.0317
     82 H         -3.049924   -7.236745   -5.117687 H        1 UNL1     0.0428
     83 H         -4.229189   -6.422072   -4.114021 H        1 UNL1     0.0428
     84 H         -0.657983   -7.709407   -2.192461 H        1 UNL1     0.0428
     85 H         -0.80071   -8.078286   -3.875518 H        1 UNL1     0.0428
     86 H         0.578959   -6.090682   -3.266591 H        1 UNL1     0.0317
     87 H         -0.727317   -5.286933   -2.524983 H        1 UNL1     0.0317
     88 H         -3.483159   -8.98817   -3.423231 H        1 UNL1     0.0429
     89 H         -2.684656   -8.899192   -1.851381 H        1 UNL1     0.0429
     90 H         -4.720316   -6.80351   -2.040066 H        1 UNL1     0.0308
     91 H         -5.537834   -9.523529   -3.095173 H        1 UNL1     0.0233
     92 H         -6.661342   -8.660571   -2.014188 H        1 UNL1     0.0233
     93 H         -6.166899   -7.938991   -3.530581 H        1 UNL1     0.0233
     94 H         -5.418187   -8.94316   -0.25152 H        1 UNL1     0.0233
     95 H         -3.679317   -8.621453   -0.166873 H        1 UNL1     0.0233
     96 H         -4.841194   -7.305288   0.119031 H        1 UNL1     0.0233
     97 H         -0.162865   0.327938   -10.593085 H        1 UNL1     0.0280
     98 H         1.457772   -0.161045   -11.007357 H        1 UNL1     0.0280
     99 H         0.063727   -0.923487   -11.828973 H        1 UNL1     0.0280
     100 H         0.145105   -4.202252   -11.523338 H        1 UNL1     0.2922
     101 H         4.564624   -2.557053   -2.844875 H        1 UNL1     0.0236
     102 H         4.746502   -4.353002   -2.758 H        1 UNL1     0.0236
     103 H         4.337916   -3.416703   -1.353757 H        1 UNL1     0.0236
     104 H         2.868206   -2.947078   0.286489 H        1 UNL1     0.2098
     105 H         -0.422221   -1.596755   -0.531874 H        1 UNL1     0.0234
     106 H         0.107455   -1.245278   1.137558 H        1 UNL1     0.0234
     107 H         0.0   0.0   0.0 H        1 UNL1     0.0234
     108 H         1.984305   0.610552   -2.51556 H        1 UNL1     0.2098
     109 H         -1.878263   0.444259   -3.027025 H        1 UNL1     0.0234
     110 H         -0.406095   -0.351125   -2.384461 H        1 UNL1     0.0234
     111 H         -1.747648   -0.023422   -1.344418 H        1 UNL1     0.0234
     112 H         0.329828   1.86831   3.821161 H        1 UNL1     0.0342
     113 H         0.933608   2.795931   2.402285 H        1 UNL1     0.0342
     114 H         -0.657981   3.142127   3.084167 H        1 UNL1     0.0342
     115 H         1.666519   4.135777   -0.0839 H        1 UNL1     0.0234
     116 H         3.219009   3.376621   0.282492 H        1 UNL1     0.0234
     117 H         2.561127   3.463077   -1.364737 H        1 UNL1     0.0234
     118 H         -0.860106   1.547245   -6.155436 H        1 UNL1     0.0309
     119 H         -1.357066   0.512878   -7.530636 H        1 UNL1     0.0309
     120 H         -1.415674   -0.062665   -5.87913 H        1 UNL1     0.0309
     121 H         1.825873   4.743741   -3.761965 H        1 UNL1     0.0524
     122 H         0.418308   4.886144   -2.701146 H        1 UNL1     0.0524
     123 H         2.055292   4.88907   -1.998283 H        1 UNL1     0.0524
@<TRIPOS>BOND
     1     1     2    1
     2     1    42    1
     3     2     3    2
     4     3     4    1
     5     4     5    2
     6     5     7    1
     7     6    75    1
     8     6    76    1
     9     6    77    1
    10     7     9   am
    11     9    10    1
    12    10    11    2
    13    10    43    1
    14    11    14    1
    15    11    15    1
    16    12    13   ar
    17    12    27   ar
    18    12    43    1
    19    13    14    1
    20    13    30   ar
    21    14    17    2
    22    15    16    1
    23    16    17    1
    24    16    18    1
    25    16    22    1
    26    18    19    1
    27    19    20    1
    28    20    21    1
    29    21    22    1
    30    23    24    1
    31    23    88    1
    32    23    89    1
    33    24    25    1
    34    24    26    1
    35    24    90    1
    36    25    91    1
    37    25    92    1
    38    25    93    1
    39    26    94    1
    40    26    95    1
    41    26    96    1
    42    27    28   ar
    43    28    29   ar
    44    29    30   ar
    45    29    31    1
    46    30    33    1
    47    31    32    1
    48    32    33    1
    49    32    35    1
    50    34    97    1
    51    34    98    1
    52    34    99    1
    53    35    61    1
    54    36    37    1
    55    36    60    1
    56    37    38    1
    57    38    39    1
    58    39    40    1
    59    40    41    1
    60    41    42    1
    61    45   100    1
    62    47   101    1
    63    47   102    1
    64    47   103    1
    65    48   104    1
    66    49   105    1
    67    49   106    1
    68    49   107    1
    69    50   108    1
    70    51    59    1
    71    52   109    1
    72    52   110    1
    73    52   111    1
    74    53    54    1
    75    54    55    2
    76    54    56    1
    77    56   112    1
    78    56   113    1
    79    56   114    1
    80    57   115    1
    81    57   116    1
    82    57   117    1
    83    58   118    1
    84    58   119    1
    85    58   120    1
    86    59   121    1
    87    59   122    1
    88    59   123    1
    89    60    61    2
    90     1    47    1
    91     1    62    1
    92     2    63    1
    93     3    64    1
    94     4    65    1
    95     5     6    1
    96     7     8    2
    97     9    78    1
    98    15    79    1
    99    18    80    1
   100    18    81    1
   101    19    82    1
   102    19    83    1
   103    20    23    1
   104    21    84    1
   105    21    85    1
   106    22    86    1
   107    22    87    1
   108    27    45    1
   109    28    34    1
   110    32    58    1
   111    33    46    2
   112    36    51    1
   113    36    66    1
   114    37    52    1
   115    37    67    1
   116    38    53    1
   117    38    68    1
   118    42    48    1
   119    42    72    1
   120    43    44    2
   121    60    73    1
   122    61    74    1
   123    39    69    1
   124    39    57    1
   125    40    70    1
   126    40    50    1
   127    41    71    1
   128    41    49    1
