@<TRIPOS>MOLECULE
*****
 123 128 0 0 0
SMALL
GASTEIGER

@<TRIPOS>ATOM
     1 C         5.167902   1.744239   0.500001 C.3        1 UNL1     0.0009
     2 C         6.606504   2.549615   -0.34784 C.2        1 UNL1     -0.0787
     3 C         7.889364   2.450744   -1.011571 C.2        1 UNL1     -0.0649
     4 C         8.76888   3.685499   -1.765355 C.2        1 UNL1     -0.0542
     5 C         9.790596   3.977736   -2.702249 C.2        1 UNL1     0.0115
     6 C         10.91972   3.351782   -3.566301 C.3        1 UNL1     -0.0348
     7 C         9.887943   5.461127   -3.308107 C.2        1 UNL1     0.2441
     8 O         10.711809   6.282065   -2.928855 O.2        1 UNL1     -0.2702
     9 N         9.139721   5.669015   -4.479899 N.am        1 UNL1     -0.2772
     10 C         7.856785   6.056499   -4.168044 C.2        1 UNL1     0.1049
     11 C         7.009852   5.085588   -3.877774 C.2        1 UNL1     0.0801
     12 C         6.557299   7.663599   -2.758824 C.ar        1 UNL1     0.0753
     13 C         5.796737   6.536072   -2.312913 C.ar        1 UNL1     0.0305
     14 C         5.913766   5.230504   -2.95855 C.2        1 UNL1     0.0924
     15 N         7.131783   3.756577   -4.037113 N.pl3        1 UNL1     -0.3170
     16 C         5.861005   3.158201   -3.725146 C.3        1 UNL1     0.1275
     17 N         5.223731   4.113559   -2.745914 N.2        1 UNL1     -0.2557
     18 C         5.010199   3.218296   -4.990144 C.3        1 UNL1     0.0016
     19 C         5.76638   2.534046   -6.117788 C.3        1 UNL1     0.0026
     20 N         6.034936   1.155625   -5.731963 N.3        1 UNL1     -0.3018
     21 C         6.796218   0.994278   -4.491485 C.3        1 UNL1     0.0026
     22 C         6.016189   1.684976   -3.371491 C.3        1 UNL1     0.0016
     23 C         6.480618   0.336142   -6.841224 C.3        1 UNL1     0.0012
     24 C         5.325434   0.084173   -7.822966 C.3        1 UNL1     -0.0339
     25 C         5.344055   1.09213   -8.983885 C.3        1 UNL1     -0.0615
     26 C         5.372224   -1.348293   -8.32559 C.3        1 UNL1     -0.0615
     27 C         6.352683   8.931258   -2.21911 C.ar        1 UNL1     0.1347
     28 C         5.392299   9.201166   -1.260537 C.ar        1 UNL1     0.0342
     29 C         4.689208   8.067061   -0.801592 C.ar        1 UNL1     0.1435
     30 C         4.908542   6.785046   -1.307112 C.ar        1 UNL1     0.0774
     31 O         3.64695   8.181082   0.050291 O.3        1 UNL1     -0.4436
     32 C         2.924625   6.948821   -0.093417 C.3        1 UNL1     0.3143
     33 C         3.938058   5.955173   -0.624295 C.2        1 UNL1     0.2504
     34 C         4.945732   10.567441   -0.820115 C.3        1 UNL1     -0.0327
     35 O         2.561604   6.511943   1.222108 O.2        1 UNL1     -0.4528
     36 C         -0.682179   4.582185   0.819627 C.3        1 UNL1     0.0854
     37 C         -0.986963   3.322111   -0.078618 C.3        1 UNL1     0.0236
     38 C         -1.589651   2.061235   0.70796 C.3        1 UNL1     0.1131
     39 C         -0.86632   1.529363   2.010332 C.3        1 UNL1     0.0200
     40 C         0.794702   1.382627   2.054067 C.3        1 UNL1     0.0661
     41 C         1.755366   0.613498   0.886516 C.3        1 UNL1     0.0091
     42 C         3.464095   0.975028   0.325318 C.3        1 UNL1     0.0661
     43 C         7.508957   7.455587   -3.87835 C.2        1 UNL1     0.2131
     44 O         7.910606   8.353614   -4.595959 O.2        1 UNL1     -0.2851
     45 O         7.166403   9.965938   -2.675986 O.3        1 UNL1     -0.5056
     46 O         3.952989   4.751586   -0.493882 O.2        1 UNL1     -0.2836
     47 C         5.561698   1.314019   1.938686 C.3        1 UNL1     -0.0566
     48 O         3.911529   -0.436421   0.407353 O.3        1 UNL1     -0.3909
     49 C         0.922964   0.381897   -0.35484 C.3        1 UNL1     -0.0577
     50 O         1.395146   2.599938   2.448207 O.3        1 UNL1     -0.3910
     51 O         -0.808589   4.392153   2.210792 O.3        1 UNL1     -0.3753
     52 C         0.059188   3.161267   -1.229551 C.3        1 UNL1     -0.0564
     53 O         -2.191576   1.022967   -0.193157 O.3        1 UNL1     -0.4608
     54 C         -2.415339   -0.286972   0.141387 C.2        1 UNL1     0.3042
     55 O         -1.843172   -1.280223   -0.305732 O.2        1 UNL1     -0.2512
     56 C         -3.446536   -0.464694   1.219237 C.3        1 UNL1     0.0332
     57 C         -1.588852   2.198467   3.270657 C.3        1 UNL1     -0.0567
     58 C         1.851308   7.195019   -1.179191 C.3        1 UNL1     0.0210
     59 C         -1.160734   5.563098   2.946147 C.3        1 UNL1     0.0372
     60 C         0.647623   5.210397   0.591297 C.2        1 UNL1     -0.0208
     61 C         1.559502   5.644706   1.462272 C.2        1 UNL1     0.0882
     62 H         4.692545   2.728722   0.586834 H        1 UNL1     0.0365
     63 H         6.34084   3.60357   -0.242619 H        1 UNL1     0.0576
     64 H         8.346677   1.483639   -1.232207 H        1 UNL1     0.0615
     65 H         8.281905   4.601132   -1.419011 H        1 UNL1     0.0622
     66 H         -1.425812   5.32934   0.508473 H        1 UNL1     0.0645
     67 H         -1.851332   3.632284   -0.691168 H        1 UNL1     0.0362
     68 H         -2.53696   2.498675   1.058351 H        1 UNL1     0.0741
     69 H         -1.198867   0.51844   2.204896 H        1 UNL1     0.0359
     70 H         0.904628   0.721941   2.935243 H        1 UNL1     0.0600
     71 H         1.797553   -0.407832   1.313204 H        1 UNL1     0.0348
     72 H         3.357027   1.463002   1.304977 H        1 UNL1     0.0602
     73 H         0.767281   5.407886   -0.445008 H        1 UNL1     0.0628
     74 H         1.540132   5.43372   2.532014 H        1 UNL1     0.1022
     75 H         10.963174   2.246424   -3.41356 H        1 UNL1     0.0279
     76 H         10.807834   3.434989   -4.645016 H        1 UNL1     0.0279
     77 H         11.924499   3.655669   -3.238013 H        1 UNL1     0.0279
     78 H         9.077922   4.799274   -5.005074 H        1 UNL1     0.1553
     79 H         7.797713   3.328304   -4.653597 H        1 UNL1     0.1484
     80 H         4.048266   2.727987   -4.797665 H        1 UNL1     0.0317
     81 H         4.784753   4.255295   -5.261178 H        1 UNL1     0.0317
     82 H         6.697808   3.064761   -6.364154 H        1 UNL1     0.0428
     83 H         5.142662   2.589911   -7.010483 H        1 UNL1     0.0428
     84 H         6.915312   -0.048856   -4.182452 H        1 UNL1     0.0428
     85 H         7.826734   1.361608   -4.593578 H        1 UNL1     0.0428
     86 H         6.531014   1.433963   -2.462681 H        1 UNL1     0.0317
     87 H         5.03621   1.207999   -3.24808 H        1 UNL1     0.0317
     88 H         7.275704   0.878906   -7.368993 H        1 UNL1     0.0429
     89 H         6.91482   -0.608699   -6.489773 H        1 UNL1     0.0429
     90 H         4.372625   0.183468   -7.289573 H        1 UNL1     0.0308
     91 H         6.292528   1.054589   -9.528027 H        1 UNL1     0.0233
     92 H         4.523986   0.896298   -9.678684 H        1 UNL1     0.0233
     93 H         5.214447   2.125952   -8.641469 H        1 UNL1     0.0233
     94 H         4.675686   -1.478417   -9.160898 H        1 UNL1     0.0233
     95 H         6.377513   -1.58556   -8.684839 H        1 UNL1     0.0233
     96 H         5.102703   -2.056783   -7.53732 H        1 UNL1     0.0233
     97 H         4.151202   10.518   -0.08153 H        1 UNL1     0.0280
     98 H         5.758155   11.136762   -0.349904 H        1 UNL1     0.0280
     99 H         4.573815   11.132506   -1.690445 H        1 UNL1     0.0280
     100 H         6.700407   10.716717   -2.999714 H        1 UNL1     0.2922
     101 H         4.697789   0.880839   2.442346 H        1 UNL1     0.0236
     102 H         6.012146   2.118866   2.5186 H        1 UNL1     0.0236
     103 H         6.317378   0.510812   1.938522 H        1 UNL1     0.0236
     104 H         4.329609   -0.562974   1.281518 H        1 UNL1     0.2098
     105 H         0.712485   1.280944   -0.92862 H        1 UNL1     0.0234
     106 H         1.292398   -0.406697   -1.010251 H        1 UNL1     0.0234
     107 H         0.0   -0.0   0.0 H        1 UNL1     0.0234
     108 H         1.195453   3.259366   1.756076 H        1 UNL1     0.2098
     109 H         1.083347   3.046949   -0.847791 H        1 UNL1     0.0234
     110 H         -0.17278   2.334538   -1.90959 H        1 UNL1     0.0234
     111 H         0.082025   4.044262   -1.882041 H        1 UNL1     0.0234
     112 H         -3.572989   -1.528624   1.441519 H        1 UNL1     0.0342
     113 H         -3.198818   0.095772   2.119436 H        1 UNL1     0.0342
     114 H         -4.405584   -0.08298   0.842825 H        1 UNL1     0.0342
     115 H         -2.653284   1.930779   3.32083 H        1 UNL1     0.0234
     116 H         -1.138993   1.937313   4.230592 H        1 UNL1     0.0234
     117 H         -1.648446   3.298822   3.210593 H        1 UNL1     0.0234
     118 H         0.949937   7.68244   -0.768146 H        1 UNL1     0.0309
     119 H         2.222414   7.782996   -2.02463 H        1 UNL1     0.0309
     120 H         1.46274   6.263464   -1.605015 H        1 UNL1     0.0309
     121 H         -0.361546   6.291074   2.809378 H        1 UNL1     0.0524
     122 H         -2.094147   6.022128   2.579993 H        1 UNL1     0.0524
     123 H         -1.274629   5.325053   3.999929 H        1 UNL1     0.0524
@<TRIPOS>BOND
     1     1     2    1
     2     1    42    1
     3     2     3    2
     4     3     4    1
     5     4     5    2
     6     5     7    1
     7     6    75    1
     8     6    76    1
     9     6    77    1
    10     7     9   am
    11     9    10    1
    12    10    11    2
    13    10    43    1
    14    11    14    1
    15    11    15    1
    16    12    13   ar
    17    12    27   ar
    18    12    43    1
    19    13    14    1
    20    13    30   ar
    21    14    17    2
    22    15    16    1
    23    16    17    1
    24    16    18    1
    25    16    22    1
    26    18    19    1
    27    19    20    1
    28    20    21    1
    29    21    22    1
    30    23    24    1
    31    23    88    1
    32    23    89    1
    33    24    25    1
    34    24    26    1
    35    24    90    1
    36    25    91    1
    37    25    92    1
    38    25    93    1
    39    26    94    1
    40    26    95    1
    41    26    96    1
    42    27    28   ar
    43    28    29   ar
    44    29    30   ar
    45    29    31    1
    46    30    33    1
    47    31    32    1
    48    32    33    1
    49    32    35    1
    50    34    97    1
    51    34    98    1
    52    34    99    1
    53    35    61    1
    54    36    37    1
    55    36    60    1
    56    37    38    1
    57    38    39    1
    58    39    40    1
    59    40    41    1
    60    41    42    1
    61    45   100    1
    62    47   101    1
    63    47   102    1
    64    47   103    1
    65    48   104    1
    66    49   105    1
    67    49   106    1
    68    49   107    1
    69    50   108    1
    70    51    59    1
    71    52   109    1
    72    52   110    1
    73    52   111    1
    74    53    54    1
    75    54    55    2
    76    54    56    1
    77    56   112    1
    78    56   113    1
    79    56   114    1
    80    57   115    1
    81    57   116    1
    82    57   117    1
    83    58   118    1
    84    58   119    1
    85    58   120    1
    86    59   121    1
    87    59   122    1
    88    59   123    1
    89    60    61    2
    90     1    47    1
    91     1    62    1
    92     2    63    1
    93     3    64    1
    94     4    65    1
    95     5     6    1
    96     7     8    2
    97     9    78    1
    98    15    79    1
    99    18    80    1
   100    18    81    1
   101    19    82    1
   102    19    83    1
   103    20    23    1
   104    21    84    1
   105    21    85    1
   106    22    86    1
   107    22    87    1
   108    27    45    1
   109    28    34    1
   110    32    58    1
   111    33    46    2
   112    36    51    1
   113    36    66    1
   114    37    52    1
   115    37    67    1
   116    38    53    1
   117    38    68    1
   118    42    48    1
   119    42    72    1
   120    43    44    2
   121    60    73    1
   122    61    74    1
   123    39    69    1
   124    39    57    1
   125    40    70    1
   126    40    50    1
   127    41    71    1
   128    41    49    1
