@<TRIPOS>MOLECULE
*****
 123 128 0 0 0
SMALL
GASTEIGER

@<TRIPOS>ATOM
     1 C         5.141238   1.833921   0.460297 C.3        1 UNL1     0.0009
     2 C         6.550816   2.682794   -0.393835 C.2        1 UNL1     -0.0787
     3 C         7.827601   2.621834   -1.073652 C.2        1 UNL1     -0.0649
     4 C         8.669572   3.885877   -1.821741 C.2        1 UNL1     -0.0542
     5 C         9.67309   4.213298   -2.766635 C.2        1 UNL1     0.0115
     6 C         10.805867   3.624407   -3.651704 C.3        1 UNL1     -0.0348
     7 C         9.729225   5.706016   -3.35454 C.2        1 UNL1     0.2441
     8 O         10.538544   6.540901   -2.974415 O.2        1 UNL1     -0.2702
     9 N         8.962524   5.91128   -4.514794 N.am        1 UNL1     -0.2772
     10 C         7.674863   6.265162   -4.183104 C.2        1 UNL1     0.1049
     11 C         6.853898   5.271432   -3.895459 C.2        1 UNL1     0.0801
     12 C         6.35582   7.824104   -2.738404 C.ar        1 UNL1     0.0753
     13 C         5.626637   6.673851   -2.298152 C.ar        1 UNL1     0.0305
     14 C         5.765817   5.379521   -2.961771 C.2        1 UNL1     0.0924
     15 N         7.004313   3.947685   -4.07321 N.pl3        1 UNL1     -0.3170
     16 C         5.751375   3.316325   -3.754174 C.3        1 UNL1     0.1275
     17 N         5.104117   4.244397   -2.755443 N.2        1 UNL1     -0.2557
     18 C         4.884397   3.372651   -5.008318 C.3        1 UNL1     0.0016
     19 C         5.642548   2.720194   -6.153349 C.3        1 UNL1     0.0026
     20 N         5.947169   1.343599   -5.788355 N.3        1 UNL1     -0.3018
     21 C         6.726678   1.184299   -4.558982 C.3        1 UNL1     0.0026
     22 C         5.944448   1.842749   -3.42124 C.3        1 UNL1     0.0016
     23 C         6.398238   0.54857   -6.913126 C.3        1 UNL1     0.0012
     24 C         5.238511   0.286067   -7.886718 C.3        1 UNL1     -0.0339
     25 C         5.300455   1.226307   -9.101696 C.3        1 UNL1     -0.0615
     26 C         5.232888   -1.172938   -8.308681 C.3        1 UNL1     -0.0615
     27 C         6.128686   9.079847   -2.180159 C.ar        1 UNL1     0.1347
     28 C         5.17387   9.31552   -1.207105 C.ar        1 UNL1     0.0342
     29 C         4.502446   8.159852   -0.754573 C.ar        1 UNL1     0.1435
     30 C         4.745029   6.889668   -1.278984 C.ar        1 UNL1     0.0774
     31 O         3.46808   8.239142   0.110763 O.3        1 UNL1     -0.4436
     32 C         2.772491   6.992462   -0.040301 C.3        1 UNL1     0.3143
     33 C         3.802005   6.029162   -0.595609 C.2        1 UNL1     0.2504
     34 C         4.701425   10.665515   -0.744061 C.3        1 UNL1     -0.0327
     35 O         2.435274   6.530882   1.273654 O.2        1 UNL1     -0.4528
     36 C         -0.768051   4.532092   0.884248 C.3        1 UNL1     0.0854
     37 C         -1.054595   3.276687   -0.026452 C.3        1 UNL1     0.0236
     38 C         -1.618842   1.9925   0.750871 C.3        1 UNL1     0.1131
     39 C         -0.868051   1.461153   2.037826 C.3        1 UNL1     0.0200
     40 C         0.796298   1.352191   2.060359 C.3        1 UNL1     0.0661
     41 C         1.76033   0.620096   0.871962 C.3        1 UNL1     0.0091
     42 C         3.453524   1.027906   0.295605 C.3        1 UNL1     0.0661
     43 C         7.298577   7.652123   -3.871493 C.2        1 UNL1     0.2131
     44 O         7.67098   8.56809   -4.582167 O.2        1 UNL1     -0.2851
     45 O         6.913003   10.138647   -2.633181 O.3        1 UNL1     -0.5056
     46 O         3.846038   4.824697   -0.480801 O.2        1 UNL1     -0.2836
     47 C         5.561901   1.394889   1.888679 C.3        1 UNL1     -0.0566
     48 O         3.934098   -0.373776   0.354352 O.3        1 UNL1     -0.3909
     49 C         0.91871   0.384955   -0.362493 C.3        1 UNL1     -0.0577
     50 O         1.373374   2.577978   2.463044 O.3        1 UNL1     -0.3910
     51 O         -0.873484   4.321776   2.274242 O.3        1 UNL1     -0.3753
     52 C         -0.01883   3.154429   -1.191439 C.3        1 UNL1     -0.0564
     53 O         -2.207541   0.952014   -0.156405 O.3        1 UNL1     -0.4608
     54 C         -2.378122   -0.371203   0.156527 C.2        1 UNL1     0.3042
     55 O         -1.778281   -1.334476   -0.319007 O.2        1 UNL1     -0.2512
     56 C         -3.38354   -0.606375   1.247647 C.3        1 UNL1     0.0332
     57 C         -1.590636   2.097582   3.314933 C.3        1 UNL1     -0.0567
     58 C         1.680953   7.227455   -1.110278 C.3        1 UNL1     0.0210
     59 C         -1.20507   5.483864   3.032837 C.3        1 UNL1     0.0372
     60 C         0.544206   5.19359   0.648531 C.2        1 UNL1     -0.0208
     61 C         1.456222   5.637843   1.514332 C.2        1 UNL1     0.0882
     62 H         4.644538   2.806024   0.565251 H        1 UNL1     0.0365
     63 H         6.262369   3.728946   -0.272045 H        1 UNL1     0.0576
     64 H         8.30427   1.668364   -1.311957 H        1 UNL1     0.0615
     65 H         8.165927   4.785634   -1.458061 H        1 UNL1     0.0622
     66 H         -1.532248   5.265756   0.591356 H        1 UNL1     0.0645
     67 H         -1.933078   3.574516   -0.624888 H        1 UNL1     0.0362
     68 H         -2.571673   2.40357   1.117828 H        1 UNL1     0.0741
     69 H         -1.175026   0.440477   2.223284 H        1 UNL1     0.0359
     70 H         0.931816   0.683221   2.931664 H        1 UNL1     0.0600
     71 H         1.83097   -0.405259   1.285018 H        1 UNL1     0.0348
     72 H         3.347   1.500966   1.282611 H        1 UNL1     0.0602
     73 H         0.64695   5.406757   -0.386482 H        1 UNL1     0.0628
     74 H         1.45444   5.413076   2.581437 H        1 UNL1     0.1022
     75 H         10.857674   2.514992   -3.535306 H        1 UNL1     0.0279
     76 H         10.69218   3.742077   -4.727017 H        1 UNL1     0.0279
     77 H         11.808728   3.924839   -3.314496 H        1 UNL1     0.0279
     78 H         8.914395   5.046997   -5.050308 H        1 UNL1     0.1553
     79 H         7.672476   3.54263   -4.70283 H        1 UNL1     0.1484
     80 H         3.936303   2.857935   -4.810959 H        1 UNL1     0.0317
     81 H         4.632056   4.407496   -5.263412 H        1 UNL1     0.0317
     82 H         6.558579   3.275275   -6.403714 H        1 UNL1     0.0428
     83 H         5.007117   2.772857   -7.037942 H        1 UNL1     0.0428
     84 H         6.873295   0.140396   -4.264737 H        1 UNL1     0.0428
     85 H         7.747224   1.576527   -4.668341 H        1 UNL1     0.0428
     86 H         6.475681   1.592294   -2.521767 H        1 UNL1     0.0317
     87 H         4.977185   1.341809   -3.292559 H        1 UNL1     0.0317
     88 H         7.176582   1.114737   -7.441264 H        1 UNL1     0.0429
     89 H         6.855315   -0.391757   -6.579001 H        1 UNL1     0.0429
     90 H         4.287899   0.450863   -7.365765 H        1 UNL1     0.0308
     91 H         6.252896   1.129475   -9.631395 H        1 UNL1     0.0233
     92 H         4.481949   1.016861   -9.794363 H        1 UNL1     0.0233
     93 H         5.199468   2.281167   -8.819018 H        1 UNL1     0.0233
     94 H         4.569825   -1.314762   -9.168953 H        1 UNL1     0.0233
     95 H         6.239801   -1.480102   -8.604888 H        1 UNL1     0.0233
     96 H         4.890225   -1.821585   -7.497628 H        1 UNL1     0.0233
     97 H         3.910732   10.588608   -0.00371 H        1 UNL1     0.0280
     98 H         5.503893   11.243822   -0.267759 H        1 UNL1     0.0280
     99 H         4.315037   11.236318   -1.604284 H        1 UNL1     0.0280
     100 H         6.426943   10.895131   -2.910848 H        1 UNL1     0.2922
     101 H         4.710849   0.946928   2.401219 H        1 UNL1     0.0236
     102 H         6.011812   2.199491   2.46935 H        1 UNL1     0.0236
     103 H         6.326729   0.600622   1.869398 H        1 UNL1     0.0236
     104 H         4.360036   -0.503334   1.224273 H        1 UNL1     0.2098
     105 H         0.70043   1.28297   -0.934973 H        1 UNL1     0.0234
     106 H         1.285585   -0.402668   -1.020506 H        1 UNL1     0.0234
     107 H         0.0   -0.0   0.0 H        1 UNL1     0.0234
     108 H         1.20715   3.224817   1.750487 H        1 UNL1     0.2098
     109 H         1.013325   3.071387   -0.823375 H        1 UNL1     0.0234
     110 H         -0.232998   2.323611   -1.872333 H        1 UNL1     0.0234
     111 H         -0.032737   4.040496   -1.840006 H        1 UNL1     0.0234
     112 H         -3.45612   -1.676866   1.462422 H        1 UNL1     0.0342
     113 H         -3.149243   -0.042043   2.149022 H        1 UNL1     0.0342
     114 H         -4.365105   -0.267623   0.888561 H        1 UNL1     0.0342
     115 H         -2.656865   1.835231   3.353878 H        1 UNL1     0.0234
     116 H         -1.145609   1.805604   4.268217 H        1 UNL1     0.0234
     117 H         -1.643221   3.199577   3.286958 H        1 UNL1     0.0234
     118 H         0.771863   7.684505   -0.681714 H        1 UNL1     0.0309
     119 H         2.027046   7.838212   -1.950158 H        1 UNL1     0.0309
     120 H         1.312044   6.292837   -1.546743 H        1 UNL1     0.0309
     121 H         -0.383652   6.192009   2.927194 H        1 UNL1     0.0524
     122 H         -2.118992   5.978025   2.66326 H        1 UNL1     0.0524
     123 H         -1.343284   5.223389   4.078373 H        1 UNL1     0.0524
@<TRIPOS>BOND
     1     1     2    1
     2     1    42    1
     3     2     3    2
     4     3     4    1
     5     4     5    2
     6     5     7    1
     7     6    75    1
     8     6    76    1
     9     6    77    1
    10     7     9   am
    11     9    10    1
    12    10    11    2
    13    10    43    1
    14    11    14    1
    15    11    15    1
    16    12    13   ar
    17    12    27   ar
    18    12    43    1
    19    13    14    1
    20    13    30   ar
    21    14    17    2
    22    15    16    1
    23    16    17    1
    24    16    18    1
    25    16    22    1
    26    18    19    1
    27    19    20    1
    28    20    21    1
    29    21    22    1
    30    23    24    1
    31    23    88    1
    32    23    89    1
    33    24    25    1
    34    24    26    1
    35    24    90    1
    36    25    91    1
    37    25    92    1
    38    25    93    1
    39    26    94    1
    40    26    95    1
    41    26    96    1
    42    27    28   ar
    43    28    29   ar
    44    29    30   ar
    45    29    31    1
    46    30    33    1
    47    31    32    1
    48    32    33    1
    49    32    35    1
    50    34    97    1
    51    34    98    1
    52    34    99    1
    53    35    61    1
    54    36    37    1
    55    36    60    1
    56    37    38    1
    57    38    39    1
    58    39    40    1
    59    40    41    1
    60    41    42    1
    61    45   100    1
    62    47   101    1
    63    47   102    1
    64    47   103    1
    65    48   104    1
    66    49   105    1
    67    49   106    1
    68    49   107    1
    69    50   108    1
    70    51    59    1
    71    52   109    1
    72    52   110    1
    73    52   111    1
    74    53    54    1
    75    54    55    2
    76    54    56    1
    77    56   112    1
    78    56   113    1
    79    56   114    1
    80    57   115    1
    81    57   116    1
    82    57   117    1
    83    58   118    1
    84    58   119    1
    85    58   120    1
    86    59   121    1
    87    59   122    1
    88    59   123    1
    89    60    61    2
    90     1    47    1
    91     1    62    1
    92     2    63    1
    93     3    64    1
    94     4    65    1
    95     5     6    1
    96     7     8    2
    97     9    78    1
    98    15    79    1
    99    18    80    1
   100    18    81    1
   101    19    82    1
   102    19    83    1
   103    20    23    1
   104    21    84    1
   105    21    85    1
   106    22    86    1
   107    22    87    1
   108    27    45    1
   109    28    34    1
   110    32    58    1
   111    33    46    2
   112    36    51    1
   113    36    66    1
   114    37    52    1
   115    37    67    1
   116    38    53    1
   117    38    68    1
   118    42    48    1
   119    42    72    1
   120    43    44    2
   121    60    73    1
   122    61    74    1
   123    39    69    1
   124    39    57    1
   125    40    70    1
   126    40    50    1
   127    41    71    1
   128    41    49    1
