@<TRIPOS>MOLECULE
*****
 123 128 0 0 0
SMALL
GASTEIGER

@<TRIPOS>ATOM
     1 C         5.167316   1.747747   0.493418 C.3        1 UNL1     0.0009
     2 C         6.604397   2.553898   -0.356262 C.2        1 UNL1     -0.0787
     3 C         7.886448   2.455715   -1.021657 C.2        1 UNL1     -0.0649
     4 C         8.764342   3.690951   -1.776544 C.2        1 UNL1     -0.0542
     5 C         9.784691   3.983747   -2.714752 C.2        1 UNL1     0.0115
     6 C         10.913022   3.358407   -3.580283 C.3        1 UNL1     -0.0348
     7 C         9.880479   5.467205   -3.320693 C.2        1 UNL1     0.2441
     8 O         10.704406   6.288563   -2.942486 O.2        1 UNL1     -0.2702
     9 N         9.130631   5.674735   -4.49151 N.am        1 UNL1     -0.2772
     10 C         7.847898   6.06154   -4.177983 C.2        1 UNL1     0.1049
     11 C         7.001849   5.090179   -3.886643 C.2        1 UNL1     0.0801
     12 C         6.549399   7.667922   -2.767036 C.ar        1 UNL1     0.0753
     13 C         5.790004   6.539985   -2.320172 C.ar        1 UNL1     0.0305
     14 C         5.906878   5.234496   -2.965998 C.2        1 UNL1     0.0924
     15 N         7.124268   3.761236   -4.046178 N.pl3        1 UNL1     -0.3170
     16 C         5.854207   3.162188   -3.732583 C.3        1 UNL1     0.1275
     17 N         5.217703   4.117186   -2.752499 N.2        1 UNL1     -0.2557
     18 C         5.001733   3.221873   -4.996476 C.3        1 UNL1     0.0016
     19 C         5.756811   2.538049   -6.125118 C.3        1 UNL1     0.0026
     20 N         6.026586   1.159758   -5.73968 N.3        1 UNL1     -0.3018
     21 C         6.789558   0.998774   -4.500193 C.3        1 UNL1     0.0026
     22 C         6.010619   1.689033   -3.379171 C.3        1 UNL1     0.0016
     23 C         6.471259   0.340539   -6.84954 C.3        1 UNL1     0.0012
     24 C         5.31605   0.091632   -7.832033 C.3        1 UNL1     -0.0339
     25 C         5.342124   1.095226   -8.996582 C.3        1 UNL1     -0.0615
     26 C         5.35532   -1.342902   -8.329375 C.3        1 UNL1     -0.0615
     27 C         6.344819   8.935459   -2.227022 C.ar        1 UNL1     0.1347
     28 C         5.385536   9.204839   -1.267198 C.ar        1 UNL1     0.0342
     29 C         4.683632   8.070354   -0.807375 C.ar        1 UNL1     0.1435
     30 C         4.902982   6.788468   -1.313215 C.ar        1 UNL1     0.0774
     31 O         3.642419   8.183807   0.04586 O.3        1 UNL1     -0.4436
     32 C         2.920553   6.951172   -0.096947 C.3        1 UNL1     0.3143
     33 C         3.933817   5.958069   -0.629165 C.2        1 UNL1     0.2504
     34 C         4.938826   10.570868   -0.82616 C.3        1 UNL1     -0.0327
     35 O         2.559464   6.514069   1.219034 O.2        1 UNL1     -0.4528
     36 C         -0.683829   4.582627   0.820699 C.3        1 UNL1     0.0854
     37 C         -0.989117   3.322419   -0.077185 C.3        1 UNL1     0.0236
     38 C         -1.590128   2.061207   0.710136 C.3        1 UNL1     0.1131
     39 C         -0.864833   1.529676   2.011555 C.3        1 UNL1     0.0200
     40 C         0.796321   1.383808   2.053135 C.3        1 UNL1     0.0661
     41 C         1.755873   0.615212   0.88432 C.3        1 UNL1     0.0091
     42 C         3.463685   0.977651   0.320919 C.3        1 UNL1     0.0661
     43 C         7.499715   7.460438   -3.887799 C.2        1 UNL1     0.2131
     44 O         7.899965   8.358695   -4.605902 O.2        1 UNL1     -0.2851
     45 O         7.157406   9.970576   -2.684921 O.3        1 UNL1     -0.5056
     46 O         3.949545   4.754486   -0.498806 O.2        1 UNL1     -0.2836
     47 C         5.563199   1.317693   1.93158 C.3        1 UNL1     -0.0566
     48 O         3.911963   -0.433567   0.402336 O.3        1 UNL1     -0.3909
     49 C         0.921986   0.383211   -0.355963 C.3        1 UNL1     -0.0577
     50 O         1.396638   2.601421   2.446532 O.3        1 UNL1     -0.3910
     51 O         -0.808338   4.392491   2.212021 O.3        1 UNL1     -0.3753
     52 C         0.055626   3.162153   -1.229477 C.3        1 UNL1     -0.0564
     53 O         -2.192677   1.022649   -0.19023 O.3        1 UNL1     -0.4608
     54 C         -2.415321   -0.287416   0.144566 C.2        1 UNL1     0.3042
     55 O         -1.843086   -1.280343   -0.303186 O.2        1 UNL1     -0.2512
     56 C         -3.445218   -0.465721   1.223563 C.3        1 UNL1     0.0332
     57 C         -1.586082   2.198368   3.272834 C.3        1 UNL1     -0.0567
     58 C         1.845702   7.19684   -1.181324 C.3        1 UNL1     0.0210
     59 C         -1.152439   5.564939   2.948788 C.3        1 UNL1     0.0372
     60 C         0.645348   5.21154   0.590665 C.2        1 UNL1     -0.0208
     61 C         1.558127   5.646301   1.460471 C.2        1 UNL1     0.0882
     62 H         4.691557   2.731979   0.580894 H        1 UNL1     0.0365
     63 H         6.338319   3.607711   -0.250667 H        1 UNL1     0.0576
     64 H         8.34398   1.488855   -1.242912 H        1 UNL1     0.0615
     65 H         8.277337   4.60632   -1.429544 H        1 UNL1     0.0622
     66 H         -1.428254   5.329402   0.51053 H        1 UNL1     0.0645
     67 H         -1.854441   3.632157   -0.688608 H        1 UNL1     0.0362
     68 H         -2.537211   2.498141   1.061766 H        1 UNL1     0.0741
     69 H         -1.1966   0.518574   2.206521 H        1 UNL1     0.0359
     70 H         0.907733   0.723155   2.934149 H        1 UNL1     0.0600
     71 H         1.799147   -0.406107   1.310924 H        1 UNL1     0.0348
     72 H         3.357631   1.465542   1.300731 H        1 UNL1     0.0602
     73 H         0.763561   5.40912   -0.445788 H        1 UNL1     0.0628
     74 H         1.540253   5.435276   2.530231 H        1 UNL1     0.1022
     75 H         10.957252   2.253068   -3.42763 H        1 UNL1     0.0279
     76 H         10.799696   3.441585   -4.65885 H        1 UNL1     0.0279
     77 H         11.918067   3.66281   -3.253288 H        1 UNL1     0.0279
     78 H         9.068607   4.804977   -5.016629 H        1 UNL1     0.1553
     79 H         7.789623   3.333328   -4.663536 H        1 UNL1     0.1484
     80 H         4.040306   2.731057   -4.802766 H        1 UNL1     0.0317
     81 H         4.775395   4.258761   -5.267189 H        1 UNL1     0.0317
     82 H         6.687641   3.069258   -6.372674 H        1 UNL1     0.0428
     83 H         5.131908   2.593613   -7.017003 H        1 UNL1     0.0428
     84 H         6.909597   -0.044305   -4.191344 H        1 UNL1     0.0428
     85 H         7.819749   1.366646   -4.603611 H        1 UNL1     0.0428
     86 H         6.526751   1.438265   -2.471035 H        1 UNL1     0.0317
     87 H         5.03105   1.211541   -3.254505 H        1 UNL1     0.0317
     88 H         7.267567   0.882361   -7.376434 H        1 UNL1     0.0429
     89 H         6.90358   -0.605434   -6.498816 H        1 UNL1     0.0429
     90 H         4.363066   0.198343   -7.300386 H        1 UNL1     0.0308
     91 H         6.292366   1.0525   -9.537246 H        1 UNL1     0.0233
     92 H         4.523841   0.899576   -9.693534 H        1 UNL1     0.0233
     93 H         5.214794   2.130734   -8.658433 H        1 UNL1     0.0233
     94 H         4.65924   -1.472068   -9.165212 H        1 UNL1     0.0233
     95 H         6.359741   -1.587248   -8.6863 H        1 UNL1     0.0233
     96 H         5.080604   -2.046953   -7.538924 H        1 UNL1     0.0233
     97 H         4.14528   10.520992   -0.086547 H        1 UNL1     0.0280
     98 H         5.75156   11.140601   -0.356985 H        1 UNL1     0.0280
     99 H         4.565487   11.135763   -1.695992 H        1 UNL1     0.0280
     100 H         6.690599   10.721121   -3.008025 H        1 UNL1     0.2922
     101 H         4.700169   0.884048   2.436345 H        1 UNL1     0.0236
     102 H         6.013977   2.12276   2.510933 H        1 UNL1     0.0236
     103 H         6.319297   0.514881   1.930415 H        1 UNL1     0.0236
     104 H         4.33124   -0.559925   1.275955 H        1 UNL1     0.2098
     105 H         0.709582   1.282287   -0.92899 H        1 UNL1     0.0234
     106 H         1.291454   -0.404599   -1.012299 H        1 UNL1     0.0234
     107 H         0.0   -0.0   0.0 H        1 UNL1     0.0234
     108 H         1.198397   3.25994   1.753119 H        1 UNL1     0.2098
     109 H         1.080339   3.048359   -0.849047 H        1 UNL1     0.0234
     110 H         -0.17679   2.335322   -1.909238 H        1 UNL1     0.0234
     111 H         0.077157   4.045179   -1.881971 H        1 UNL1     0.0234
     112 H         -3.570819   -1.529722   1.445988 H        1 UNL1     0.0342
     113 H         -3.196819   0.094889   2.123484 H        1 UNL1     0.0342
     114 H         -4.404901   -0.084555   0.848216 H        1 UNL1     0.0342
     115 H         -2.650308   1.930123   3.324378 H        1 UNL1     0.0234
     116 H         -1.134844   1.937423   4.232178 H        1 UNL1     0.0234
     117 H         -1.646329   3.298694   3.212878 H        1 UNL1     0.0234
     118 H         0.94461   7.683778   -0.769098 H        1 UNL1     0.0309
     119 H         2.215406   7.785034   -2.027226 H        1 UNL1     0.0309
     120 H         1.45707   6.265094   -1.606671 H        1 UNL1     0.0309
     121 H         -0.348037   6.287391   2.813296 H        1 UNL1     0.0524
     122 H         -2.082415   6.031082   2.582875 H        1 UNL1     0.0524
     123 H         -1.268448   5.326319   4.002209 H        1 UNL1     0.0524
@<TRIPOS>BOND
     1     1     2    1
     2     1    42    1
     3     2     3    2
     4     3     4    1
     5     4     5    2
     6     5     7    1
     7     6    75    1
     8     6    76    1
     9     6    77    1
    10     7     9   am
    11     9    10    1
    12    10    11    2
    13    10    43    1
    14    11    14    1
    15    11    15    1
    16    12    13   ar
    17    12    27   ar
    18    12    43    1
    19    13    14    1
    20    13    30   ar
    21    14    17    2
    22    15    16    1
    23    16    17    1
    24    16    18    1
    25    16    22    1
    26    18    19    1
    27    19    20    1
    28    20    21    1
    29    21    22    1
    30    23    24    1
    31    23    88    1
    32    23    89    1
    33    24    25    1
    34    24    26    1
    35    24    90    1
    36    25    91    1
    37    25    92    1
    38    25    93    1
    39    26    94    1
    40    26    95    1
    41    26    96    1
    42    27    28   ar
    43    28    29   ar
    44    29    30   ar
    45    29    31    1
    46    30    33    1
    47    31    32    1
    48    32    33    1
    49    32    35    1
    50    34    97    1
    51    34    98    1
    52    34    99    1
    53    35    61    1
    54    36    37    1
    55    36    60    1
    56    37    38    1
    57    38    39    1
    58    39    40    1
    59    40    41    1
    60    41    42    1
    61    45   100    1
    62    47   101    1
    63    47   102    1
    64    47   103    1
    65    48   104    1
    66    49   105    1
    67    49   106    1
    68    49   107    1
    69    50   108    1
    70    51    59    1
    71    52   109    1
    72    52   110    1
    73    52   111    1
    74    53    54    1
    75    54    55    2
    76    54    56    1
    77    56   112    1
    78    56   113    1
    79    56   114    1
    80    57   115    1
    81    57   116    1
    82    57   117    1
    83    58   118    1
    84    58   119    1
    85    58   120    1
    86    59   121    1
    87    59   122    1
    88    59   123    1
    89    60    61    2
    90     1    47    1
    91     1    62    1
    92     2    63    1
    93     3    64    1
    94     4    65    1
    95     5     6    1
    96     7     8    2
    97     9    78    1
    98    15    79    1
    99    18    80    1
   100    18    81    1
   101    19    82    1
   102    19    83    1
   103    20    23    1
   104    21    84    1
   105    21    85    1
   106    22    86    1
   107    22    87    1
   108    27    45    1
   109    28    34    1
   110    32    58    1
   111    33    46    2
   112    36    51    1
   113    36    66    1
   114    37    52    1
   115    37    67    1
   116    38    53    1
   117    38    68    1
   118    42    48    1
   119    42    72    1
   120    43    44    2
   121    60    73    1
   122    61    74    1
   123    39    69    1
   124    39    57    1
   125    40    70    1
   126    40    50    1
   127    41    71    1
   128    41    49    1
